## CIF file created by Jmol 15.2.18  2021-02-10 09:12
data_global
_cell_length_a             4.9159994
_cell_length_b             9.832
_cell_length_c             5.4054
_cell_angle_alpha          90.0
_cell_angle_beta           90.0
_cell_angle_gamma          120.00001

_space_group_IT_number     1
_space_group_name_Hall     'P 1'
_space_group_name_H-M_alt  'P1'

loop_
_space_group_symop_id
_space_group_symop_operation_xyz
x,y,z

loop_
_atom_site_label
_atom_site_fract_x
_atom_site_fract_y
_atom_site_fract_z
Si     0.500005781651    0.234851017594    0.666666686535  # Si
O      0.233101069927    0.073296286166    0.785769820213  # O
Si     0.030305981636    0.265151351690    0.333333343267  # Si
O      0.086499094963    0.426694303751    0.214230224490  # O
O      0.353406131268    0.293255478144    0.452436476946  # O
Si     0.500008165836    0.734853386879    0.666666686535  # Si
O      0.233103394508    0.573298573494    0.785769820213  # O
Si     0.030308306217    0.765153646469    0.333333343267  # Si
O      0.086501419544    0.926696658134    0.214230224490  # O
O      0.353396773338    0.793246030807    0.452436476946  # O
Si     0.969690978527    0.000000000000    0.000000000000  # Si
O      0.913495481014    0.133450612426    0.119103133678  # O
O      0.766897618771    0.206746891141    0.547563552856  # O
O      0.646596729755    0.366551727057    0.880896925926  # O
Si     0.969693362713    0.500002324581    0.000000000000  # Si
O      0.913497865200    0.633452951908    0.119103133678  # O
O      0.766899883747    0.706749141216    0.547563552856  # O
O      0.646599113941    0.866554081440    0.880896925926  # O

# 18 atoms
