## CIF file created by Jmol 15.2.50  2021-02-10 09:12
data_global
_cell_length_a             5.4533
_cell_length_b             5.4533
_cell_length_c             5.4533
_cell_angle_alpha          90.0
_cell_angle_beta           90.0
_cell_angle_gamma          90.0

_space_group_IT_number     1
_space_group_name_Hall     'P 1'
_space_group_name_H-M_alt  'P1'

loop_
_space_group_symop_id
_space_group_symop_operation_xyz
1 x,y,z

loop_
_atom_site_label
_atom_site_type_symbol
_atom_site_fract_x
_atom_site_fract_y
_atom_site_fract_z
Na1   Na     0.000000000000    0.000000000000    0.000000000000
Cl1   Cl     0.500000000000    0.500000000000    0.500000000000
Na2   Na     0.000000000000    0.500000000000    0.500000000000
Cl2   Cl     0.500000000000    0.000000000000    0.000000000000
Na3   Na     0.500000000000    0.000000000000    0.500000000000
Cl3   Cl     0.000000000000    0.500000000000    0.000000000000
Na4   Na     0.500000000000    0.500000000000    0.000000000000
Cl4   Cl     0.000000000000    0.000000000000    0.500000000000

loop_
_atom_type_symbol
Na
Cl



loop_
_jmol_atom_index
_jmol_atom_name
_jmol_atom_site_label
  0 Na    Na1
  1 Cl    Cl1
  2 Na    Na2
  3 Cl    Cl2
  4 Na    Na3
  5 Cl    Cl3
  6 Na    Na4
  7 Cl    Cl4

# 8 atoms
