##TITLE=
##JCAMPDX= 6.0         $$ Bruker NMR JCAMP-DX V2.0
##DATA TYPE= NMR SPECTRUM
##DATA CLASS= XYDATA
##ORIGIN= Bruker BioSpin GmbH
##OWNER= nmrsu
$$ TOPSPIN		Version 1.3
$$ 2012-03-07 07:40:30.937 -0500  nmrsu@CHEM-NMR-002
$$ Compression mode = diff/dup
##.OBSERVE FREQUENCY= 500.133088507478
##.OBSERVE NUCLEUS= ^1H
##.ACQUISITION MODE= SIMULTANEOUS (DQD)
##.ACQUISITION SCHEME= undefined
##.AVERAGES= 16
##.DIGITISER RES= 18
##SPECTROMETER/DATA SYSTEM= spect
##.PULSE SEQUENCE= zg30
##.SOLVENT NAME= Acetone
##.SHIFT REFERENCE= INTERNAL, Acetone, 1, 16.5033
##AUDIT TRAIL= $$ (NUMBER, WHEN, WHO, WHERE, WHAT)
$$ ##TITLE= Audit trail, TOPSPIN		Version 1.3
$$ ##JCAMPDX= 5.01
$$ ##ORIGIN= Bruker BioSpin GmbH
$$ ##OWNER= nmrsu
$$ $$ c:/nmr/data/NMRSU/nmr/hexanol/1/pdata/1/auditp.txt
$$ ##AUDIT TRAIL=  $$ (NUMBER, WHEN, WHO, WHERE, VERSION, WHAT)
(   1,<2011-04-05 15:14:31.296 -0500>,<nmrsu>,<CHEM-NMR-002>,<TOPSPIN 1.3>,
      <created by zg
	started at 2011-04-05 15:13:08.750 -0500,
	POWCHK disabled, PULCHK disabled
       configuration hash MD5:
       89 8D FF 31 3C 84 4A 6E 0C C0 43 22 33 C2 E1 E5
       data hash MD5: 64K
       5C 97 C5 A1 D3 A4 64 DF 49 92 80 AA E3 98 58 A0>)
(   2,<2011-04-05 15:14:39.828 -0500>,<nmrsu>,<CHEM-NMR-002>,<TOPSPIN 1.3>,
      <Start of raw data processing
       ef LB = 0.3 FT_mod = 6 PKNL = 1 SI = 32K 
       data hash MD5: 32K
       88 EE DA 9A 53 EF B3 CF 1D D3 9E FE 5A 57 40 22>)
(   3,<2011-04-05 15:14:42.031 -0500>,<nmrsu>,<CHEM-NMR-002>,<TOPSPIN 1.3>,
      <apk 
       data hash MD5: 32K
       1C 5B A4 A6 94 61 FE 3D 03 B4 1F 56 4C 0C 04 0C>)
(   4,<2011-04-05 15:14:44.031 -0500>,<nmrsu>,<CHEM-NMR-002>,<TOPSPIN 1.3>,
      <abs ABSG = 5 
       data hash MD5: 32K
       00 87 69 51 54 A6 8D FE 99 55 80 04 07 03 9E BE>)
$$ ##END=
$$ 
$$ $$ hash MD5
$$ $$ 91 4D 7C E3 42 8A 92 77 8C 8C 75 AE DF 4C C6 4F
##$RELAX= 
##$BRUKER FILE EXP=format.temp
$$ EDIT_PAR COMMAND FILE
$$ 
$$ DI_MODE         LONG
$$ ED_ENTRY        ACQU
$$ ORDER           FILE
$$ 
$$ 
$$ HEADER		"F2 - Acquisition Parameters"
$$ T_NAME		Date_
$$ 		TYPE	R64
$$ 		CLASS	ACQU
$$ 		SUBRANGE 0.0 50000000
$$ 		REL	"Date_=itodate(DATE)"
$$ 		INV_REL	"DATE=datetoi(Date_,DATE)"
$$ 		FORMAT	"%14.0f"
$$ 		TEXT	" "
$$ END
$$ T_NAME		Time
$$ 		TYPE	R32
$$ 		CLASS	ACQU
$$ 		SUBRANGE 0.0 1000000
$$ 		REL	"Time=itotime(DATE)"
$$ 		INV_REL	"DATE=timetoi(Time,DATE)"
$$ 		FORMAT	"%14.2f"
$$ 		TEXT	" "
$$ END
$$ NAME		INSTRUM
$$ 		TEXT	" "
$$ END
$$ NAME		PROBHD
$$ 		FORMAT	"%14.14s"
$$ 		TEXT	" "
$$ END
$$ NAME		PULPROG
$$ 		TEXT	" "
$$ END
$$ NAME		TD
$$ 		TEXT	" "
$$ END
$$ NAME		SOLVENT
$$ 		TEXT	" "
$$ END
$$ NAME		NS
$$ 		TEXT	" "
$$ END
$$ NAME		DS
$$ 		TEXT	" "
$$ END
$$ T_NAME		SWH
$$ 		TYPE	R32
$$ 		CLASS	ACQU
$$ 		SUBRANGE 0.0 1e8
$$ 		REL	"SWH=SW*SFO1"
$$ 		INV_REL "SW=SWH/SFO1"
$$ 		UNIT	"Hz"
$$ 		FORMAT	"%14.3f Hz"
$$ 		TEXT	" "
$$ END
$$ T_NAME          FIDRES
$$                 TYPE    R32
$$                 CLASS   ACQU
$$                 SUBRANGE 0.0 100000
$$                 REL     "FIDRES=SW*SFO1/TD"
$$                 INV_REL "TD = nextpow(SW*SFO1/FIDRES)"
$$ 		UNIT	"Hz"
$$ 		FORMAT	"%14.6f Hz"
$$ 		TEXT	" "
$$ END
$$ T_NAME          AQ
$$ 		TYPE	R32
$$ 		CLASS	ACQU
$$ 		SUBRANGE 0.0 1000
$$ 		REL	"AQ=aqcalc(SW,SFO1,TD,DIGTYP)"
$$ 		INV_REL	"TD=tdcalc(SW,SFO1,1.0e6*AQ,DIGTYP)"
$$ 		UNIT	"sec"
$$ 		FORMAT	"%14.7f sec"
$$ 		TEXT	" "
$$ END
$$ NAME		RG
$$ 		TEXT	" "
$$ END
$$ T_NAME          DW
$$ 		TYPE	R32
$$ 		CLASS	ACQU
$$ 		SUBRANGE 0.0 1000000
$$ 		REL	"DW=1/(2*SW*SFO1)"
$$ 		INV_REL	"SW=1000000/(2*(0.005+DW)*SFO1)"
$$ 		UNIT	"usec"
$$ 		FORMAT	"%14.3lf usec"
$$ 		TEXT	" "
$$ END
$$ NAME		DE
$$ 		FORMAT	"%14.2f usec"
$$ 		TEXT	" "
$$ END
$$ NAME		TE
$$ 		FORMAT	"%14.1f K"
$$ 		TEXT	" "
$$ END
$$ T_NAME		D1
$$ 		TYPE	R32
$$ 		CLASS	ACQU
$$ 		SUBRANGE 0.0 1e38
$$ 		REL	"D1=D[1]"
$$ 		INV_REL	"D[1]=D1"
$$ 		UNIT	"sec"
$$ 		FORMAT	"%14.8f sec"
$$ 		TEXT	" "
$$ END
$$ NAME		TD0
$$ 		TEXT	" "
$$ END
$$ HEADER		"======== CHANNEL f1 ========"
$$ NAME		NUC1
$$ 		NONEDIT
$$ 		TEXT	" "
$$ END
$$ T_NAME		P1
$$ 		TYPE	R32
$$ 		CLASS	ACQU
$$ 		SUBRANGE 0.0 1.0e10
$$ 		REL	"P1=P[1]"
$$ 		INV_REL	"P[1]=P1"
$$ 		UNIT	"usec"
$$ 		FORMAT	"%14.2f usec"
$$ 		TEXT	" "
$$ END
$$ T_NAME		PL1
$$ 		TYPE	R32
$$ 		CLASS	ACQU
$$ 		SUBRANGE -6.0 1e38
$$ 		REL	"PL1=PL[1]"
$$ 		INV_REL	"PL[1]=PL1"
$$ 		UNIT	"dB"
$$ 		FORMAT	"%14.2f dB"
$$ 		TEXT	" "
$$ END
$$ NAME		SFO1
$$ 		FORMAT	"%14.7f MHz"
$$ 		TEXT	" "
$$ END
##$RELAX= 
##$BRUKER FILE EXP=scon
$$ ##TITLE= Parameter file, TOPSPIN		Version 1.3
$$ ##JCAMPDX= 5.0
$$ ##DATATYPE= Parameter Values
$$ ##ORIGIN= Bruker BioSpin GmbH
$$ ##OWNER= nmrsu
$$ $$ 2011-04-05 15:13:08.718 -0500  nmrsu@CHEM-NMR-002
$$ $$ c:/nmr/data/NMRSU/nmr/hexanol/1/scon
$$ ##$BLKPA= (0..15)
3 3 3 3 3 3 3 3 3 3 3 3 3 3 3 3 
$$ ##$BLKTR= (0..15)
3 3 3 3 3 3 3 3 3 3 3 3 3 3 3 3 
$$ ##$DE1= 2
$$ ##$DE2= 2
$$ ##$DEADC= 4
$$ ##$DEPA= 2
$$ ##$DERX= 3
$$ ##$PHASP4= (0..15)
0.5 0.5 0.5 0.5 0.5 0.5 0.5 0.5 0.5 0.5 0.5 0.5 0.5 0.5 0.5 0.5 
$$ ##$PHASPR= (0..15)
3 3 3 3 3 3 3 3 3 3 3 3 3 3 3 3 
$$ ##$SHAPPR= (0..15)
1.6 1.6 1.6 1.6 1.6 1.6 1.6 1.6 1.6 1.6 1.6 1.6 1.6 1.6 1.6 1.6 
$$ ##END=
##$RELAX= 
##$BRUKER FILE EXP=prosol_History
$$ #*******************************************************************
$$ #
$$ # $Source: /sc/CvsTree/sc/gen/src/prg/scripts/tix/prosol/lib/lists/default,v $
$$ #
$$ # Copyright (c) 1999
$$ # BRUKER ANALYTIK GMBH
$$ # D-76287 Rheinstetten, Germany
$$ #
$$ # All Rights Reserved
$$ #
$$ #
$$ # $Id: default,v 1.11.6.4 2006/06/09 10:27:10 ber Exp $
$$ #
$$ #*******************************************************************
$$ #../conf/instr/spect/prosol/relations/default
$$ #avance-version (05/10/24)
$$ #
$$ #pulses
$$ #
$$ P[0]=P90[F1];				#  90 deg pulse F1
$$ P[1]=P90[F1];				#  90 deg pulse F1
$$ P[2]=P90[F1]*2;				# 180 deg pulse F1
$$ P[3]=P90[F2];				#  90 deg pulse F2
$$ P[4]=P90[F2]*2;				# 180 deg pulse F2
$$ P[5]=PTOC[F1]*0.66;			#  60 deg pulse F1, TOCSY 
$$ P[6]=PTOC[F1];				#  90 deg pulse F1, TOCSY
$$ P[7]=PTOC[F1]*2;			# 180 deg pulse F1, TOCSY
$$ P[8]=PSH3[F1];                          #  90 deg selective F1, WET
$$ P[9]=PTOC[F2];				#  90 deg pulse F2, TOCSY
$$ P[10]=PTOC[F2]*2;			# 180 deg pulse F2, TOCSY
$$ P[11]=PSH1[F1];				#  90 deg selective F1
$$ P[12]=PSH2[F1];				# 180 deg selective F1
$$ #
$$ P[14]=PSH3[F2];				# 180 deg inversion, adiabatic
$$ P[15]=TROE[F1];				# cw pulse F1, ROESY
$$ P[18]=PSH7[F1];				# off-resonance presat F1
$$ P[21]=P90[F3];				#  90 deg pulse F3
$$ P[22]=P90[F3]*2;			# 180 deg pulse F3
$$ P[23]=P90[F4];				#  90 deg pulse F4
$$ P[24]=PSH2[F2];				# 180 deg refocussing, adiabatic
$$ P[25]=PROE[F1]*2;			# 180 deg pulse, Shaka ROESY
$$ P[27]=P90[F1];				#  90 deg pulse F1, WATERGATE
$$ #
$$ P[29]=PSH8[F1];                         # flip back pulse
$$ P[31]=PSH15[F2];                        # 180 deg adiabatic, F2, 13C x-filter
$$ P[32]=PSH16[F1];                        # 180 deg adiabatic, F1, z-spoil
$$ #P[33]=PSH[F1];                         #  90 deg, F1, hadamard
$$ #P[34]=PSH[F1];                         # 180 deg, F1, hadamard
$$ #P[35]=PSH[F2];                         #  90 deg, F2, hadamard
$$ #P[36]=PSH[F2];                         # 180 deg, F2, hadamard
$$ #P[37]=PSH[F3];                         #  90 deg, F3, hadamard
$$ #P[38]=PSH[F3];                         # 180 deg, F3, hadamard
$$ #
$$ P[63]=PSH11[F2];                        # 180 deg adiabatic decoupling, F2, 13C
$$ #
$$ #decoupling pulses
$$ #
$$ PCPD[1]=PCPDP[F1];			# 90 deg pulse F1, dec.
$$ PCPD[2]=PCPDP[F2];			# 90 deg pulse F2, dec.
$$ PCPD[3]=PCPDP[F3];			# 90 deg pulse F3, dec.
$$ #
$$ #power levels
$$ #
$$ PL[1]=PL90[F1];				# high power, F1
$$ PL[2]=PL90[F2];				# high power, F2
$$ PL[3]=PL90[F3];				# high power, F3
$$ PL[4]=PL90[F4];				# high power, F4
$$ PL[9]=PLCW[F1];				# presat power, F1
$$ PL[10]=PLTOC[F1];			# TOCSY power, F1
$$ PL[11]=PLROE[F1];			# ROESY power, F1
$$ PL[12]=PLCPDP[F2];			# dec. power, F2
$$ PL[13]=PLCPD2[F2];			# dec. power 2, F2
$$ PL[14]=PLNOE[F2];			# low power cw, F2
$$ PL[15]=PLTOC[F2];			# TOCSY power, F2
$$ PL[16]=PLCPDP[F3];			# dec. power, F3
$$ PL[18]=PL90[F1];			# WATERGATE power, F1
$$ PL[19]=PLCPDP[F1];			# dec. power, F1
$$ PL[21]=PLCW[F2];			# 
$$ PL[23]=PLTOC[F3];			# TOCSY power, F3
$$ PL[24]=PLHD[F2];			# HD decoupling, F2
$$ PL[25]=PLSH8U[F2];			# Eretic, F2
$$ PL[27]=PLROE[F1];			# Shaka Spinlock
$$ PL[30]=PLCPDP[F2];			# dec. power, F2, 13C (=pl12)
$$ PL[31]=PLUSER2[F2];			# dec. power, F2, 13C, cw bilev
$$ #
$$ #shapes
$$ #
$$ SP[1]=PLSH1[F1];			#  90 deg selective F1
$$ SP[2]=PLSH2[F1];			# 180 deg selective F1
$$ SP[3]=PLSH3[F2];			# adiabatic 180 deg, F2, inversion
$$ SP[6]=PLSH7[F1];			# off-resonance presat F1
$$ SP[7]=PLSH2[F2];			# adiabatic 180 deg, F2, refocussing
$$ SP[11]=PLSH8[F1];                       # flip-back pulse, F1, H
$$ SP[14]=PLSH12[F2];			# adiab. bilev dec., F2, 13C
$$ SP[18]=PLSH15[F2];                      # adiabatic 180 deg, F2, 13C, x-filter
$$ SP[19]=PLSH3[F1] +0.87;                 #  90 deg, F1, wet
$$ SP[20]=PLSH3[F1] -1.04;                 #  90 deg, F1, wet
$$ SP[21]=PLSH3[F1] +2.27;                 #  90 deg, F1, wet
$$ SP[22]=PLSH3[F1] -5.05;                 #  90 deg, F1, wet
$$ #SP[23]=PLSH[F1];                       #  90 deg, F1, hadamard
$$ #SP[24]=PLSH[F1];                       # 180 deg, F1, hadamard
$$ #SP[25]=PLSH[F2];                       #  90 deg, F2, hadamard
$$ #SP[26]=PLSH[F2];                       # 180 deg, F2, hadamard
$$ #SP[27]=PLSH[F3];                       #  90 deg, F3, hadamard
$$ #SP[28]=PLSH[F3];                       # 180 deg, F3, hadamard
$$ SP[29]=PLSH16[F1];                      # adiabatic 180 deg, F1, z-spoil
$$ SP[31]=PLSH11[F2];			# adiab. dec., F2, 13C
$$ #
$$ SPNAM1=PNSH1[F1];			#
$$ SPNAM2=PNSH2[F1];			#
$$ SPNAM3=PNSH3[F2];			#
$$ SPNAM6=PNSH7[F1];			#
$$ SPNAM7=PNSH2[F2];			#
$$ SPNAM11=PNSH8[F1];                      #
$$ SPNAM14=PNSH12[F2];			#
$$ SPNAM15=PNSH8U[F2];			# Eretic, F2
$$ SPNAM18=PNSH15[F2];			#
$$ SPNAM19=PNSH3[F1];			#
$$ SPNAM20=PNSH3[F1];			#
$$ SPNAM21=PNSH3[F1];			#
$$ SPNAM22=PNSH3[F1];			#
$$ #SPNAM23=PNSH[];                        #
$$ #SPNAM24=PNSH[];                        #
$$ #SPNAM25=PNSH[];                        #
$$ #SPNAM26=PNSH[];                        #
$$ #SPNAM27=PNSH[];                        #
$$ #SPNAM28=PNSH[];                        #
$$ SPNAM29=PNSH16[F1];                     #
$$ SPNAM31=PNSH11[F2];			#
$$ #
$$ SPOAL[1]=PASH1[F1];			#
$$ SPOAL[2]=PASH2[F1];			#
$$ SPOAL[3]=PASH3[F2];			#
$$ SPOAL[6]=PASH7[F1];			#
$$ SPOAL[7]=PASH2[F2];			#
$$ SPOAL[11]=PASH8[F1];
$$ SPOAL[14]=PASH12[F2];			#
$$ SPOAL[18]=PASH15[F2];			#
$$ SPOAL[19]=PASH3[F1];			#
$$ SPOAL[20]=PASH3[F1];			#
$$ SPOAL[21]=PASH3[F1];			#
$$ SPOAL[22]=PASH3[F1];			#
$$ #SPOAL[23]=PASH[];			#
$$ #SPOAL[24]=PASH[];			#
$$ #SPOAL[25]=PASH[];			#
$$ #SPOAL[26]=PASH[];			#
$$ #SPOAL[27]=PASH[];			#
$$ #SPOAL[28]=PASH[];			#
$$ SPOAL[29]=PASH16[F1];                   #
$$ SPOAL[31]=PASH11[F2];			#
$$ #
$$ #global
$$ #
$$ D[9]=TTOC[F1];				#
$$ D[16]=D_grad;				#
$$ P[16]=P_grad1;				#
$$ P[17]=P_mlev;				#
$$ P[19]=P_grad2;				#
$$ P[20]=P_mlev;				#
$$ P[28]=P_hsqc;				#
$$ #
##$RELAX= 
##$BRUKER FILE EXP=pulseprogram
$$ # 1 "C:/Bruker/TOPSPIN/exp/stan/nmr/lists/pp/zg30"
$$ ;zg30
$$ ;avance-version (07/04/03)
$$ ;1D sequence
$$ ;using 30 degree flip angle
$$ ;
$$ ;$CLASS=HighRes
$$ ;$DIM=1D
$$ ;$TYPE=
$$ ;$SUBTYPE=
$$ ;$COMMENT=
$$ 
$$ 
$$ # 1 "C:/Bruker/TOPSPIN/exp/stan/nmr/lists/pp/Avance.incl" 1
$$ ;Avance.incl
$$ ;
$$ ;avance-version (07/01/22)
$$ ;
$$ ;$CLASS=HighRes Incl
$$ ;$COMMENT=
$$ 
$$ 
$$ 
$$ 
$$ 
$$ 
$$ 
$$ 
$$ 
$$ 
$$ 
$$ 
$$ 
$$ 
$$ 
$$ 
$$ 
$$ 
$$ 
$$ 
$$ 
$$ 
$$ 
$$ 
$$ 
$$ 
$$ 
$$ 
$$ 
$$ 
$$ 
$$ 
$$ 
$$ 
$$ 
$$ 
$$ 
$$ 
$$ 
$$ 
$$ 
$$ 
$$ 
$$ 
$$ 
$$ 
$$ 
$$ 
$$ 
$$ 
$$ 
$$ 
$$ 
$$ 
$$ 
$$ 
$$ 
$$ 
$$ 
$$ 
$$ 
$$ 
$$ 
$$ 
$$ 
$$ 
$$ 
$$ 
$$ 
$$ 
$$ 
$$ 
$$ 
$$ 
$$ 
$$ 
$$ 
$$ 
$$ 
$$ 
$$ 
$$ 
$$ 
$$ 
$$ 
$$ 
$$ 
$$ 
$$ 
$$ 
$$ 
$$ 
$$ 
$$ 
$$ 
$$ 
$$ 
$$ 
$$ 
$$ 
$$ 
$$ 
$$ 
$$ 
$$ 
$$ 
$$ 
$$ 
$$ 
$$ 
$$ 
$$ 
$$ 
$$ 
$$ 
$$ 
$$ 
$$ 
$$ 
$$ 
$$ 
$$ 
$$ 
$$ 
$$ 
$$ 
$$ 
$$ 
$$ 
$$ ;$Id: Avance1.incl,v 1.10.6.2 2007/01/22 13:54:46 ber Exp $
$$ # 13 "C:/Bruker/TOPSPIN/exp/stan/nmr/lists/pp/zg30" 2
$$ 
$$ 
$$ 
$$ "acqt0=-p1*0.66/3.1416"
$$ 
$$ 
$$ # 1 "mc_line 19 file C:/Bruker/TOPSPIN/exp/stan/nmr/lists/pp/zg30 expanding definition part of mc command before ze"
$$ define delay MCWRK
$$ define delay MCREST
$$ "MCWRK = 0.500000*30m"
$$ "MCREST = 30m - 30m"
$$ # 19 "C:/Bruker/TOPSPIN/exp/stan/nmr/lists/pp/zg30"
$$ 1 ze
$$ # 1 "mc_line 19 file C:/Bruker/TOPSPIN/exp/stan/nmr/lists/pp/zg30 expanding definition of mc command after ze"
$$ # 20 "C:/Bruker/TOPSPIN/exp/stan/nmr/lists/pp/zg30"
$$ # 1 "mc_line 20 file C:/Bruker/TOPSPIN/exp/stan/nmr/lists/pp/zg30 expanding start label for mc command"
$$ 2 MCWRK  * 2
$$ LBLF0, MCREST
$$ # 21 "C:/Bruker/TOPSPIN/exp/stan/nmr/lists/pp/zg30"
$$   d1
$$   p1*0.33 ph1
$$   go=2 ph31
$$ # 1 "mc_line 24 file C:/Bruker/TOPSPIN/exp/stan/nmr/lists/pp/zg30 expanding mc command in line"
$$   MCWRK wr #0
$$   MCWRK zd 
$$   lo to LBLF0 times td0
$$ 
$$ # 25 "C:/Bruker/TOPSPIN/exp/stan/nmr/lists/pp/zg30"
$$ exit
$$ 
$$ 
$$ ph1=0 2 2 0 1 3 3 1
$$ ph31=0 2 2 0 1 3 3 1
$$ 
$$ 
$$ ;pl1 : f1 channel - power level for pulse (default)
$$ ;p1 : f1 channel -  90 degree high power pulse
$$ ;d1 : relaxation delay; 1-5 * T1
$$ ;NS: 1 * n, total number of scans: NS * TD0
$$ 
$$ 
$$ 
$$ ;$Id: zg30,v 1.7.10.2 2007/04/11 13:16:56 ber Exp $
##$RELAX= 
##$BRUKER FILE EXP=uxnmr.par
$$ ##TITLE= Parameter file, TOPSPIN		Version 1.3
$$ ##JCAMPDX= 5.0
$$ ##DATATYPE= Parameter Values
$$ ##ORIGIN= Bruker BioSpin GmbH
$$ ##OWNER= Admin
$$ $$ 2011-03-29 10:26:06.953 -0500  nmrsu@CHEM-NMR-002
$$ $$ C:/Bruker/TOPSPIN/conf/instr/spect/uxnmr.par
$$ ##$ACB= 1
$$ ##$ACBTAT= (0..15)
0 88 72 50 0 0 0 0 0 0 0 0 0 0 0 0 
$$ ##$ACBTBA= (0..15)
0 40 30 0 0 0 0 0 0 0 0 0 0 0 0 0 
$$ ##$ACBTCTL= (0..15)
0 1 1 0 0 0 0 0 0 0 0 0 0 0 0 0 
$$ ##$ACBTDI= (0..15)
0 70 70 72 0 0 0 0 0 0 0 0 0 0 0 0 
$$ ##$ACBTDM= (0..15)
0 8 25 0 0 0 0 0 0 0 0 0 0 0 0 0 
$$ ##$ACBTFHI= (0..15)
0 243 600 0 0 0 0 0 0 0 0 0 0 0 0 0 
$$ ##$ACBTFL= (0..15)
0 249 250 8 0 0 0 0 0 0 0 0 0 0 0 0 
$$ ##$ACBTFLO= (0..15)
0 6 470 0 0 0 0 0 0 0 0 0 0 0 0 0 
$$ ##$ACBTOUT= (0..15)
0 2 1 0 0 0 0 0 0 0 0 0 0 0 0 0 
$$ ##$ACBTPO= (0..15)
0 300000 50000 20000 0 0 0 0 0 0 0 0 0 0 0 0 
$$ ##$ACBTPW= (0..15)
0 100 100 0 0 0 0 0 0 0 0 0 0 0 0 0 
$$ ##$ACBTSB= (0..15)
0 1 1 1 0 0 0 0 0 0 0 0 0 0 0 0 
$$ ##$ACBTY= <tty07>
$$ ##$AQSBDHW= (0..31)
255 255 255 255 255 255 255 255 255 255 255 255 255 255 255 255 255 255 
255 255 255 255 255 255 255 255 255 255 255 255 255 255 
$$ ##$AQSBDID= (0..31)
255 255 255 255 255 255 255 255 255 255 255 255 255 255 255 255 255 255 
255 255 255 255 255 255 255 255 255 255 255 255 255 255 
$$ ##$AQSBDNO= (0..31)
255 255 255 255 255 255 255 255 255 255 255 255 255 255 255 255 255 255 
255 255 255 255 255 255 255 255 255 255 255 255 255 255 
$$ ##$AQSBDTY= (0..31)
255 255 255 255 255 255 255 255 255 255 255 255 255 255 255 255 255 255 
255 255 255 255 255 255 255 255 255 255 255 255 255 255 
$$ ##$AQSBUAD= (0..31)
255 255 255 255 255 255 255 255 255 255 255 255 255 255 255 255 255 255 
255 255 255 255 255 255 255 255 255 255 255 255 255 255 
$$ ##$AQSECL= (0..31)
255 255 255 255 255 255 255 255 255 255 255 255 255 255 255 255 255 255 
255 255 255 255 255 255 255 255 255 255 255 255 255 255 
$$ ##$AQSECLS= (0..31)
255 255 255 255 255 255 255 255 255 255 255 255 255 255 255 255 255 255 
255 255 255 255 255 255 255 255 255 255 255 255 255 255 
$$ ##$ATT19F= (0..1)
0 0 
$$ ##$ATT1H= (0..1)
0 0 
$$ ##$ATT3H= (0..1)
0 0 
$$ ##$ATTX= (0..1)
0 0 
$$ ##$ATTY= (0..1)
0 0 
$$ ##$ATTZ= (0..1)
0 0 
$$ ##$BACSAIR= yes
$$ ##$BACSCAP= 0
$$ ##$BACSDEL= 10
$$ ##$BACSFCM= no
$$ ##$BACSOPT= <>
$$ ##$BACSTY= <no>
$$ ##$BARPTY= <no>
$$ ##$BFREQ= 500.13
$$ ##$BIRDS= no
$$ ##$BMPC= 0
$$ ##$BMPCTY= <no>
$$ ##$BPSUTY= <no>
$$ ##$BSMS= 1
$$ ##$BSMSTY= <tty02>
$$ ##$CFASMOD= (0..7)
2 2 0 0 0 0 0 0 
$$ ##$CFASMUL= (0..7)
1 1 0 0 0 0 0 0 
$$ ##$CNFTXDR= (0..7)
3 3 0 0 0 0 0 0 
$$ ##$COMDIG2= 0
$$ ##$CPDBTY= <no>
$$ ##$CRCOTY= <no>
$$ ##$DATSTAT= no
$$ ##$DIGI140= (0..7)
0 0 0 0 0 0 0 0 
$$ ##$DIGIB12= (0..7)
0 0 0 0 0 0 0 0 
$$ ##$DIGIB16= (0..7)
0 0 0 0 0 0 0 0 
$$ ##$DIGIFA= (0..7)
0 0 0 0 0 0 0 0 
$$ ##$DIGIHA= (0..7)
0 0 0 0 0 0 0 0 
$$ ##$DIGIHAF= (0..7)
1 0 0 0 0 0 0 0 
$$ ##$DIGIHRD= (0..7)
0 0 0 0 0 0 0 0 
$$ ##$DIGIIA= (0..7)
0 0 0 0 0 0 0 0 
$$ ##$DIGIO16= (0..7)
0 0 0 0 0 0 0 0 
$$ ##$DIGISA= (0..7)
0 0 0 0 0 0 0 0 
$$ ##$DIGISAF= (0..7)
0 0 0 0 0 0 0 0 
$$ ##$DIGISL= (0..7)
0 0 0 0 0 0 0 0 
$$ ##$DIGITYI= (0..7)
0 0 0 0 0 0 0 0 
$$ ##$DIGITYP= (0..7)
2 0 0 0 0 0 0 0 
$$ ##$DIGITZ= 0
$$ ##$DRU= no
$$ ##$FCUMEM= (0..7)
258048 258048 0 0 0 0 0 0 
$$ ##$FCUPAL= (0..7)
3 3 0 0 0 0 0 0 
$$ ##$FQMIX= 0
$$ ##$FUNCMOD= <>
$$ ##$GCUTYPE= 1
$$ ##$GTUTY= <no>
$$ ##$HFAC= 3
$$ ##$HPCU= 0
$$ ##$HPCUTY= <no>
$$ ##$HPTXLP= (0..3)
-1 -1 -1 -1 
$$ ##$HPTXPI= (0..3)
0 0 0 0 
$$ ##$HPTXPO= (0..3)
0 0 0 0 
$$ ##$HPTXTY= (0..3)
0 0 0 0 
$$ ##$IF451= 0
$$ ##$IFREQ= 1
$$ ##$INTFPR= 0
$$ ##$IPSO= no
$$ ##$LOCKTY= <tty03>
$$ ##$LOCSWID= 0
$$ ##$M2FAC= 0
$$ ##$MASTY= <no>
$$ ##$MEMPRM= 0
$$ ##$MHFAC= 0
$$ ##$MXFAC= 0
$$ ##$NAMPD1= <2H>
$$ ##$NAMPD10= <>
$$ ##$NAMPD11= <>
$$ ##$NAMPD12= <>
$$ ##$NAMPD13= <>
$$ ##$NAMPD14= <>
$$ ##$NAMPD15= <>
$$ ##$NAMPD16= <>
$$ ##$NAMPD2= <1H>
$$ ##$NAMPD3= <X-BB19F_2HS>
$$ ##$NAMPD4= <>
$$ ##$NAMPD5= <>
$$ ##$NAMPD6= <>
$$ ##$NAMPD7= <>
$$ ##$NAMPD8= <>
$$ ##$NAMPD9= <>
$$ ##$NFCU= 2
$$ ##$NMRCH= 2
$$ ##$NMRMEM= 16384
$$ ##$NRCU= 1
$$ ##$NROUT= 1
$$ ##$PAMPF1= (0..15)
75 99 0 27 2 0 0 203 134 46 8 118 1 0 0 0 
$$ ##$PAMPF2= (0..15)
0 0 0 0 0 0 0 0 0 0 0 0 0 0 0 0 
$$ ##$PAMPF3= (0..15)
0 0 0 0 0 0 0 0 0 0 0 0 0 0 0 0 
$$ ##$PAMPF4= (0..15)
0 0 0 0 0 0 0 0 0 0 0 0 0 0 0 0 
$$ ##$PAMPF5= (0..15)
0 0 0 0 0 0 0 0 0 0 0 0 0 0 0 0 
$$ ##$PAMPF6= (0..15)
0 0 0 0 0 0 0 0 0 0 0 0 0 0 0 0 
$$ ##$PAMPF7= (0..15)
0 0 0 0 0 0 0 0 0 0 0 0 0 0 0 0 
$$ ##$PAMPF8= (0..15)
0 0 0 0 0 0 0 0 0 0 0 0 0 0 0 0 
$$ ##$PH4= 0
$$ ##$PHF4TY= <no>
$$ ##$POWCHK= no
$$ ##$PRAMD1= (0..7)
0 1048576 0 0 0 1048576 0 0 
$$ ##$PRAMD10= (0..7)
0 0 0 0 0 0 0 0 
$$ ##$PRAMD11= (0..7)
0 0 0 0 0 0 0 0 
$$ ##$PRAMD12= (0..7)
0 0 0 0 0 0 0 0 
$$ ##$PRAMD13= (0..7)
0 0 0 0 0 0 0 0 
$$ ##$PRAMD14= (0..7)
0 0 0 0 0 0 0 0 
$$ ##$PRAMD15= (0..7)
0 0 0 0 0 0 0 0 
$$ ##$PRAMD16= (0..7)
0 0 0 0 0 0 0 0 
$$ ##$PRAMD17= (0..7)
0 0 0 0 0 0 0 0 
$$ ##$PRAMD18= (0..7)
0 0 0 0 0 0 0 0 
$$ ##$PRAMD19= (0..7)
0 0 0 0 0 0 0 0 
$$ ##$PRAMD2= (0..7)
0 0 0 0 0 0 0 0 
$$ ##$PRAMD20= (0..7)
0 0 0 0 0 0 0 0 
$$ ##$PRAMD21= (0..7)
0 0 0 0 0 0 0 0 
$$ ##$PRAMD3= (0..7)
2 0 0 0 2 0 0 0 
$$ ##$PRAMD4= (0..7)
2147483644 2146435071 2147483647 134217727 2147483644 2146435071 2147483647 
134217727 
$$ ##$PRAMD5= (0..7)
0 0 0 0 0 0 0 0 
$$ ##$PRAMD6= (0..7)
0 0 0 0 0 0 0 0 
$$ ##$PRAMD7= (0..7)
0 0 0 0 0 0 0 0 
$$ ##$PRAMD8= (0..7)
0 0 0 0 0 0 0 0 
$$ ##$PRAMD9= (0..7)
0 0 0 0 0 0 0 0 
$$ ##$PRAMLED= (0..1)
15 15 
$$ ##$PRAMP1= <tty01>
$$ ##$PRAMP2= <no>
$$ ##$PRAMP3= <no>
$$ ##$PRAMP4= <no>
$$ ##$PRAMP5= <no>
$$ ##$PRAMP6= <no>
$$ ##$PRAMP7= <no>
$$ ##$PRAMP8= <no>
$$ ##$PRAMPTP= 0
$$ ##$PREPTY= <no>
$$ ##$PRESHLD= 0
$$ ##$PTS160= -1
$$ ##$PTSA2X= (0..7)
0 0 0 0 0 0 0 0 
$$ ##$PTSF2X= (0..7)
309 309 0 0 0 0 0 0 
$$ ##$PTSFMX= (0..7)
620 620 0 0 0 0 0 0 
$$ ##$PULCHK= no
$$ ##$RCUCDS= (0..7)
4194304 0 0 0 0 0 0 0 
$$ ##$RCUCFS= (0..7)
4096 0 0 0 0 0 0 0 
$$ ##$RCUCSS= (0..7)
262144 0 0 0 0 0 0 0 
$$ ##$RCUI2C1= (0..7)
78 66 0 0 0 0 0 0 
$$ ##$RCUI2C2= (0..7)
0 0 0 0 0 0 0 0 
$$ ##$RCUI2C3= (0..7)
0 0 0 0 0 0 0 0 
$$ ##$RCUI2C4= (0..7)
0 0 0 0 0 0 0 0 
$$ ##$RCUI2C5= (0..7)
0 0 0 0 0 0 0 0 
$$ ##$RCUI2C6= (0..7)
0 0 0 0 0 0 0 0 
$$ ##$RCUI2C7= (0..7)
0 0 0 0 0 0 0 0 
$$ ##$RCUI2C8= (0..7)
0 0 0 0 0 0 0 0 
$$ ##$RDCU= 0
$$ ##$RGTYPE= (0..7)
5 0 0 0 0 0 0 0 
$$ ##$RG_max= (0..7)
46341 0 0 0 0 0 0 0 
$$ ##$RG_min= (0..7)
1 0 0 0 0 0 0 0 
$$ ##$RG_tab1= (0..255)
1 1.1 1.3 1.4 1.6 1.8 2 2.2 2.5 2.8 3.2 3.6 4 4.5 5 5.7 6.3 7.1 8 9 10.1 
11.3 12.7 14.3 16 18 20.2 22.6 25.4 28.5 32 35.9 40.3 45.3 50.8 57 64 
71.8 80.6 90.5 101.6 114 128 143.7 161.3 181 203.2 228.1 256 287.4 322.5 
362 406.4 456.1 512 574.7 645.1 724.1 812.7 912.3 1024 1149.4 1290.2 1448.2 
1625.5 1824.6 2048 2298.8 2580.3 2896.3 3251 3649.1 4096 4597.6 5160.6 
5792.6 6502 7298.2 8192 9195.2 10321.3 11585.2 13004 14596.5 16384 18390.4 
20642.5 23170.5 26008 29193 32768 36780.8 41285.1 46341 -1 -1 -1 -1 -1 
-1 -1 -1 -1 -1 -1 -1 -1 -1 -1 -1 -1 -1 -1 -1 -1 -1 -1 -1 -1 -1 -1 -1 -1 
-1 -1 -1 -1 -1 -1 -1 -1 -1 -1 -1 -1 -1 -1 -1 -1 -1 -1 -1 -1 -1 -1 -1 -1 
-1 -1 -1 -1 -1 -1 -1 -1 -1 -1 -1 -1 -1 -1 -1 -1 -1 -1 -1 -1 -1 -1 -1 -1 
-1 -1 -1 -1 -1 -1 -1 -1 -1 -1 -1 -1 -1 -1 -1 -1 -1 -1 -1 -1 -1 -1 -1 -1 
-1 -1 -1 -1 -1 -1 -1 -1 -1 -1 -1 -1 -1 -1 -1 -1 -1 -1 -1 -1 -1 -1 -1 -1 
-1 -1 -1 -1 -1 -1 -1 -1 -1 -1 -1 -1 -1 -1 -1 -1 -1 -1 -1 -1 -1 -1 -1 -1 
-1 -1 -1 -1 -1 -1 -1 -1 -1 -1 -1 -1 -1 
$$ ##$RG_tab2= (0..255)
-1 -1 -1 -1 -1 -1 -1 -1 -1 -1 -1 -1 -1 -1 -1 -1 -1 -1 -1 -1 -1 -1 -1 -1 
-1 -1 -1 -1 -1 -1 -1 -1 -1 -1 -1 -1 -1 -1 -1 -1 -1 -1 -1 -1 -1 -1 -1 -1 
-1 -1 -1 -1 -1 -1 -1 -1 -1 -1 -1 -1 -1 -1 -1 -1 -1 -1 -1 -1 -1 -1 -1 -1 
-1 -1 -1 -1 -1 -1 -1 -1 -1 -1 -1 -1 -1 -1 -1 -1 -1 -1 -1 -1 -1 -1 -1 -1 
-1 -1 -1 -1 -1 -1 -1 -1 -1 -1 -1 -1 -1 -1 -1 -1 -1 -1 -1 -1 -1 -1 -1 -1 
-1 -1 -1 -1 -1 -1 -1 -1 -1 -1 -1 -1 -1 -1 -1 -1 -1 -1 -1 -1 -1 -1 -1 -1 
-1 -1 -1 -1 -1 -1 -1 -1 -1 -1 -1 -1 -1 -1 -1 -1 -1 -1 -1 -1 -1 -1 -1 -1 
-1 -1 -1 -1 -1 -1 -1 -1 -1 -1 -1 -1 -1 -1 -1 -1 -1 -1 -1 -1 -1 -1 -1 -1 
-1 -1 -1 -1 -1 -1 -1 -1 -1 -1 -1 -1 -1 -1 -1 -1 -1 -1 -1 -1 -1 -1 -1 -1 
-1 -1 -1 -1 -1 -1 -1 -1 -1 -1 -1 -1 -1 -1 -1 -1 -1 -1 -1 -1 -1 -1 -1 -1 
-1 -1 -1 -1 -1 -1 -1 -1 -1 -1 -1 -1 -1 -1 -1 -1 
$$ ##$RG_tab3= (0..255)
-1 -1 -1 -1 -1 -1 -1 -1 -1 -1 -1 -1 -1 -1 -1 -1 -1 -1 -1 -1 -1 -1 -1 -1 
-1 -1 -1 -1 -1 -1 -1 -1 -1 -1 -1 -1 -1 -1 -1 -1 -1 -1 -1 -1 -1 -1 -1 -1 
-1 -1 -1 -1 -1 -1 -1 -1 -1 -1 -1 -1 -1 -1 -1 -1 -1 -1 -1 -1 -1 -1 -1 -1 
-1 -1 -1 -1 -1 -1 -1 -1 -1 -1 -1 -1 -1 -1 -1 -1 -1 -1 -1 -1 -1 -1 -1 -1 
-1 -1 -1 -1 -1 -1 -1 -1 -1 -1 -1 -1 -1 -1 -1 -1 -1 -1 -1 -1 -1 -1 -1 -1 
-1 -1 -1 -1 -1 -1 -1 -1 -1 -1 -1 -1 -1 -1 -1 -1 -1 -1 -1 -1 -1 -1 -1 -1 
-1 -1 -1 -1 -1 -1 -1 -1 -1 -1 -1 -1 -1 -1 -1 -1 -1 -1 -1 -1 -1 -1 -1 -1 
-1 -1 -1 -1 -1 -1 -1 -1 -1 -1 -1 -1 -1 -1 -1 -1 -1 -1 -1 -1 -1 -1 -1 -1 
-1 -1 -1 -1 -1 -1 -1 -1 -1 -1 -1 -1 -1 -1 -1 -1 -1 -1 -1 -1 -1 -1 -1 -1 
-1 -1 -1 -1 -1 -1 -1 -1 -1 -1 -1 -1 -1 -1 -1 -1 -1 -1 -1 -1 -1 -1 -1 -1 
-1 -1 -1 -1 -1 -1 -1 -1 -1 -1 -1 -1 -1 -1 -1 -1 
$$ ##$RG_tab4= (0..255)
-1 -1 -1 -1 -1 -1 -1 -1 -1 -1 -1 -1 -1 -1 -1 -1 -1 -1 -1 -1 -1 -1 -1 -1 
-1 -1 -1 -1 -1 -1 -1 -1 -1 -1 -1 -1 -1 -1 -1 -1 -1 -1 -1 -1 -1 -1 -1 -1 
-1 -1 -1 -1 -1 -1 -1 -1 -1 -1 -1 -1 -1 -1 -1 -1 -1 -1 -1 -1 -1 -1 -1 -1 
-1 -1 -1 -1 -1 -1 -1 -1 -1 -1 -1 -1 -1 -1 -1 -1 -1 -1 -1 -1 -1 -1 -1 -1 
-1 -1 -1 -1 -1 -1 -1 -1 -1 -1 -1 -1 -1 -1 -1 -1 -1 -1 -1 -1 -1 -1 -1 -1 
-1 -1 -1 -1 -1 -1 -1 -1 -1 -1 -1 -1 -1 -1 -1 -1 -1 -1 -1 -1 -1 -1 -1 -1 
-1 -1 -1 -1 -1 -1 -1 -1 -1 -1 -1 -1 -1 -1 -1 -1 -1 -1 -1 -1 -1 -1 -1 -1 
-1 -1 -1 -1 -1 -1 -1 -1 -1 -1 -1 -1 -1 -1 -1 -1 -1 -1 -1 -1 -1 -1 -1 -1 
-1 -1 -1 -1 -1 -1 -1 -1 -1 -1 -1 -1 -1 -1 -1 -1 -1 -1 -1 -1 -1 -1 -1 -1 
-1 -1 -1 -1 -1 -1 -1 -1 -1 -1 -1 -1 -1 -1 -1 -1 -1 -1 -1 -1 -1 -1 -1 -1 
-1 -1 -1 -1 -1 -1 -1 -1 -1 -1 -1 -1 -1 -1 -1 -1 
$$ ##$RG_tab5= (0..255)
-1 -1 -1 -1 -1 -1 -1 -1 -1 -1 -1 -1 -1 -1 -1 -1 -1 -1 -1 -1 -1 -1 -1 -1 
-1 -1 -1 -1 -1 -1 -1 -1 -1 -1 -1 -1 -1 -1 -1 -1 -1 -1 -1 -1 -1 -1 -1 -1 
-1 -1 -1 -1 -1 -1 -1 -1 -1 -1 -1 -1 -1 -1 -1 -1 -1 -1 -1 -1 -1 -1 -1 -1 
-1 -1 -1 -1 -1 -1 -1 -1 -1 -1 -1 -1 -1 -1 -1 -1 -1 -1 -1 -1 -1 -1 -1 -1 
-1 -1 -1 -1 -1 -1 -1 -1 -1 -1 -1 -1 -1 -1 -1 -1 -1 -1 -1 -1 -1 -1 -1 -1 
-1 -1 -1 -1 -1 -1 -1 -1 -1 -1 -1 -1 -1 -1 -1 -1 -1 -1 -1 -1 -1 -1 -1 -1 
-1 -1 -1 -1 -1 -1 -1 -1 -1 -1 -1 -1 -1 -1 -1 -1 -1 -1 -1 -1 -1 -1 -1 -1 
-1 -1 -1 -1 -1 -1 -1 -1 -1 -1 -1 -1 -1 -1 -1 -1 -1 -1 -1 -1 -1 -1 -1 -1 
-1 -1 -1 -1 -1 -1 -1 -1 -1 -1 -1 -1 -1 -1 -1 -1 -1 -1 -1 -1 -1 -1 -1 -1 
-1 -1 -1 -1 -1 -1 -1 -1 -1 -1 -1 -1 -1 -1 -1 -1 -1 -1 -1 -1 -1 -1 -1 -1 
-1 -1 -1 -1 -1 -1 -1 -1 -1 -1 -1 -1 -1 -1 -1 -1 
$$ ##$RG_tab6= (0..255)
-1 -1 -1 -1 -1 -1 -1 -1 -1 -1 -1 -1 -1 -1 -1 -1 -1 -1 -1 -1 -1 -1 -1 -1 
-1 -1 -1 -1 -1 -1 -1 -1 -1 -1 -1 -1 -1 -1 -1 -1 -1 -1 -1 -1 -1 -1 -1 -1 
-1 -1 -1 -1 -1 -1 -1 -1 -1 -1 -1 -1 -1 -1 -1 -1 -1 -1 -1 -1 -1 -1 -1 -1 
-1 -1 -1 -1 -1 -1 -1 -1 -1 -1 -1 -1 -1 -1 -1 -1 -1 -1 -1 -1 -1 -1 -1 -1 
-1 -1 -1 -1 -1 -1 -1 -1 -1 -1 -1 -1 -1 -1 -1 -1 -1 -1 -1 -1 -1 -1 -1 -1 
-1 -1 -1 -1 -1 -1 -1 -1 -1 -1 -1 -1 -1 -1 -1 -1 -1 -1 -1 -1 -1 -1 -1 -1 
-1 -1 -1 -1 -1 -1 -1 -1 -1 -1 -1 -1 -1 -1 -1 -1 -1 -1 -1 -1 -1 -1 -1 -1 
-1 -1 -1 -1 -1 -1 -1 -1 -1 -1 -1 -1 -1 -1 -1 -1 -1 -1 -1 -1 -1 -1 -1 -1 
-1 -1 -1 -1 -1 -1 -1 -1 -1 -1 -1 -1 -1 -1 -1 -1 -1 -1 -1 -1 -1 -1 -1 -1 
-1 -1 -1 -1 -1 -1 -1 -1 -1 -1 -1 -1 -1 -1 -1 -1 -1 -1 -1 -1 -1 -1 -1 -1 
-1 -1 -1 -1 -1 -1 -1 -1 -1 -1 -1 -1 -1 -1 -1 -1 
$$ ##$RG_tab7= (0..255)
-1 -1 -1 -1 -1 -1 -1 -1 -1 -1 -1 -1 -1 -1 -1 -1 -1 -1 -1 -1 -1 -1 -1 -1 
-1 -1 -1 -1 -1 -1 -1 -1 -1 -1 -1 -1 -1 -1 -1 -1 -1 -1 -1 -1 -1 -1 -1 -1 
-1 -1 -1 -1 -1 -1 -1 -1 -1 -1 -1 -1 -1 -1 -1 -1 -1 -1 -1 -1 -1 -1 -1 -1 
-1 -1 -1 -1 -1 -1 -1 -1 -1 -1 -1 -1 -1 -1 -1 -1 -1 -1 -1 -1 -1 -1 -1 -1 
-1 -1 -1 -1 -1 -1 -1 -1 -1 -1 -1 -1 -1 -1 -1 -1 -1 -1 -1 -1 -1 -1 -1 -1 
-1 -1 -1 -1 -1 -1 -1 -1 -1 -1 -1 -1 -1 -1 -1 -1 -1 -1 -1 -1 -1 -1 -1 -1 
-1 -1 -1 -1 -1 -1 -1 -1 -1 -1 -1 -1 -1 -1 -1 -1 -1 -1 -1 -1 -1 -1 -1 -1 
-1 -1 -1 -1 -1 -1 -1 -1 -1 -1 -1 -1 -1 -1 -1 -1 -1 -1 -1 -1 -1 -1 -1 -1 
-1 -1 -1 -1 -1 -1 -1 -1 -1 -1 -1 -1 -1 -1 -1 -1 -1 -1 -1 -1 -1 -1 -1 -1 
-1 -1 -1 -1 -1 -1 -1 -1 -1 -1 -1 -1 -1 -1 -1 -1 -1 -1 -1 -1 -1 -1 -1 -1 
-1 -1 -1 -1 -1 -1 -1 -1 -1 -1 -1 -1 -1 -1 -1 -1 
$$ ##$RG_tab8= (0..255)
-1 -1 -1 -1 -1 -1 -1 -1 -1 -1 -1 -1 -1 -1 -1 -1 -1 -1 -1 -1 -1 -1 -1 -1 
-1 -1 -1 -1 -1 -1 -1 -1 -1 -1 -1 -1 -1 -1 -1 -1 -1 -1 -1 -1 -1 -1 -1 -1 
-1 -1 -1 -1 -1 -1 -1 -1 -1 -1 -1 -1 -1 -1 -1 -1 -1 -1 -1 -1 -1 -1 -1 -1 
-1 -1 -1 -1 -1 -1 -1 -1 -1 -1 -1 -1 -1 -1 -1 -1 -1 -1 -1 -1 -1 -1 -1 -1 
-1 -1 -1 -1 -1 -1 -1 -1 -1 -1 -1 -1 -1 -1 -1 -1 -1 -1 -1 -1 -1 -1 -1 -1 
-1 -1 -1 -1 -1 -1 -1 -1 -1 -1 -1 -1 -1 -1 -1 -1 -1 -1 -1 -1 -1 -1 -1 -1 
-1 -1 -1 -1 -1 -1 -1 -1 -1 -1 -1 -1 -1 -1 -1 -1 -1 -1 -1 -1 -1 -1 -1 -1 
-1 -1 -1 -1 -1 -1 -1 -1 -1 -1 -1 -1 -1 -1 -1 -1 -1 -1 -1 -1 -1 -1 -1 -1 
-1 -1 -1 -1 -1 -1 -1 -1 -1 -1 -1 -1 -1 -1 -1 -1 -1 -1 -1 -1 -1 -1 -1 -1 
-1 -1 -1 -1 -1 -1 -1 -1 -1 -1 -1 -1 -1 -1 -1 -1 -1 -1 -1 -1 -1 -1 -1 -1 
-1 -1 -1 -1 -1 -1 -1 -1 -1 -1 -1 -1 -1 -1 -1 -1 
$$ ##$ROUTER= 2
$$ ##$RX22TY= <tty10>
$$ ##$SCMTY= <no>
$$ ##$SPECTR= 5
$$ ##$SY2FLAG= 0
$$ ##$TFXNUM= 0
$$ ##$TRIPLO2= 0
$$ ##$VTUTY= <tty05>
$$ ##$WBREFAM= (0..15)
100 100 100 100 100 100 100 100 100 100 100 100 100 100 100 100 
$$ ##$WBREFPH= (0..15)
0 0 0 0 0 0 0 0 0 0 0 0 0 0 0 0 
$$ ##$XFAC= 2
$$ ##END=
##$RELAX= 
##$BRUKER FILE PROC=intrng
$$ P 0
$$ 4.978344   4.514396
$$ 4.215603   3.855665
$$ 3.855034   3.106792
$$ 2.276602   -0.907370
##$RELAX= 
$$ Bruker specific parameters
$$ --------------------------
##$DU= <c:/nmr>
##$EXPNO= 1
##$NAME= <hexanol>
##$PROCNO= 1
##$TYPE= <nmr>
##$USER= <NMRSU>
##$AMP= (0..31)
100 100 100 100 100 100 100 100 100 100 100 100 100 100 100 100 100 100 
100 100 100 100 100 100 100 100 100 100 100 100 100 100 
##$ANAVPT= -1
##$AQSEQ= 0
##$AQ_mod= 3
##$AUNM= <au_zg>
##$AUTOPOS= <35 >
##$BF1= 500.13
##$BF2= 500.13
##$BF3= 500.13
##$BF4= 500.13
##$BF5= 500.13
##$BF6= 500.13
##$BF7= 500.13
##$BF8= 500.13
##$BYTORDA= 1
##$CFDGTYP= 2
##$CFRGTYP= 5
##$CHEMSTR= <none>
##$CNST= (0..63)
1 1 145 1 1 1 1 1 1 1 1 1 1 1 1 1 1 1 1 1 1 1 1 1 1 1 1 1 1 1 1 1 1 1 
1 1 1 1 1 1 1 1 1 1 1 1 1 1 1 1 1 1 1 1 1 1 1 1 1 1 1 1 1 1 
##$CPDPRG= <>
##$CPDPRG1= <>
##$CPDPRG2= <>
##$CPDPRG3= <>
##$CPDPRG4= <mlev>
##$CPDPRG5= <mlev>
##$CPDPRG6= <mlev>
##$CPDPRG7= <mlev>
##$CPDPRG8= <mlev>
##$CPDPRGB= <>
##$CPDPRGT= <>
##$D= (0..63)
0 1 0 0 0 0 0 0 0 0.08 0 0 0 0 0 0 0.0002 0 0 0 0 0 0 0 0 0 0 0 0 0 0 
0 0 0 0 0 0 0 0 0 0 0 0 0 0 0 0 0 0 0 0 0 0 0 0 0 0 0 0 0 0 0 0 0 
##$DATE= 1302034467
##$DBL= (0..7)
120 120 120 120 120 120 120 120 
##$DBP= (0..7)
150 150 150 150 150 150 150 150 
##$DBP07= 0
##$DBPNAM0= <>
##$DBPNAM1= <>
##$DBPNAM2= <>
##$DBPNAM3= <>
##$DBPNAM4= <>
##$DBPNAM5= <>
##$DBPNAM6= <>
##$DBPNAM7= <>
##$DBPOAL= (0..7)
0.5 0.5 0.5 0.5 0.5 0.5 0.5 0.5 
##$DBPOFFS= (0..7)
0 0 0 0 0 0 0 0 
##$DE= 6
##$DECBNUC= <off>
##$DECIM= 16
##$DECNUC= <off>
##$DECSTAT= 4
##$DIGMOD= 1
##$DIGTYP= 8
##$DL= (0..7)
0 120 120 120 120 120 120 120 
##$DP= (0..7)
150 150 150 150 150 150 150 150 
##$DP07= 0
##$DPNAME0= <>
##$DPNAME1= <>
##$DPNAME2= <>
##$DPNAME3= <>
##$DPNAME4= <>
##$DPNAME5= <>
##$DPNAME6= <>
##$DPNAME7= <>
##$DPOAL= (0..7)
0.5 0.5 0.5 0.5 0.5 0.5 0.5 0.5 
##$DPOFFS= (0..7)
0 0 0 0 0 0 0 0 
##$DQDMODE= 0
##$DR= 18
##$DS= 2
##$DSLIST= <SSSSSSSSSSSSSSS>
##$DSPFIRM= 0
##$DSPFVS= 12
##$DTYPA= 0
##$EXP= <PROTON>
##$F1LIST= <111111111111111>
##$F2LIST= <222222222222222>
##$F3LIST= <333333333333333>
##$FCUCHAN= (0..9)
0 1 0 0 0 0 0 0 0 0 
##$FL1= 90
##$FL2= 90
##$FL3= 90
##$FL4= 90
##$FOV= 20
##$FQ1LIST= <freqlist>
##$FQ2LIST= <freqlist>
##$FQ3LIST= <freqlist>
##$FQ4LIST= <freqlist>
##$FQ5LIST= <freqlist>
##$FQ6LIST= <freqlist>
##$FQ7LIST= <freqlist>
##$FQ8LIST= <freqlist>
##$FRQLO3= 0
##$FRQLO3N= 0
##$FS= (0..7)
83 83 83 83 83 83 83 83 
##$FTLPGN= 0
##$FW= 125000
##$FnMODE= 0
##$GP031= 0
##$GPNAM0= <sine.100>
##$GPNAM1= <sine.100>
##$GPNAM10= <sine.100>
##$GPNAM11= <sine.100>
##$GPNAM12= <sine.100>
##$GPNAM13= <sine.100>
##$GPNAM14= <sine.100>
##$GPNAM15= <sine.100>
##$GPNAM16= <sine.100>
##$GPNAM17= <sine.100>
##$GPNAM18= <sine.100>
##$GPNAM19= <sine.100>
##$GPNAM2= <sine.100>
##$GPNAM20= <sine.100>
##$GPNAM21= <sine.100>
##$GPNAM22= <sine.100>
##$GPNAM23= <sine.100>
##$GPNAM24= <sine.100>
##$GPNAM25= <sine.100>
##$GPNAM26= <sine.100>
##$GPNAM27= <sine.100>
##$GPNAM28= <sine.100>
##$GPNAM29= <sine.100>
##$GPNAM3= <sine.100>
##$GPNAM30= <sine.100>
##$GPNAM31= <sine.100>
##$GPNAM4= <sine.100>
##$GPNAM5= <sine.100>
##$GPNAM6= <sine.100>
##$GPNAM7= <sine.100>
##$GPNAM8= <sine.100>
##$GPNAM9= <sine.100>
##$GPX= (0..31)
0 0 0 0 0 0 0 0 0 0 0 0 0 0 0 0 0 0 0 0 0 0 0 0 0 0 0 0 0 0 0 0 
##$GPY= (0..31)
0 0 0 0 0 0 0 0 0 0 0 0 0 0 0 0 0 0 0 0 0 0 0 0 0 0 0 0 0 0 0 0 
##$GPZ= (0..31)
0 0 0 0 0 0 0 0 0 0 0 0 0 0 0 0 0 0 0 0 0 0 0 0 0 0 0 0 0 0 0 0 
##$GRDPROG= <>
##$GRPDLY= -1
##$HDDUTY= 20
##$HDRATE= 20
##$HGAIN= (0..3)
0 0 0 0 
##$HL1= 1
##$HL2= 35
##$HL3= 16
##$HL4= 17
##$HOLDER= 0
##$HPMOD= (0..7)
0 0 0 0 0 0 0 0 
##$HPPRGN= 0
##$IN= (0..31)
0.001 0.001 0.001 0.001 0.001 0.001 0.001 0.001 0.001 0.001 0.001 0.001 
0.001 0.001 0.001 0.001 0.001 0.001 0.001 0.001 0.001 0.001 0.001 0.001 
0.001 0.001 0.001 0.001 0.001 0.001 0.001 0.001 
##$INP= (0..31)
0 0 0 0 0 0 0 0 0 0 0 0 0 0 0 0 0 0 0 0 0 0 0 0 0 0 0 0 0 0 0 0 
##$INSTRUM= <spect>
##$L= (0..31)
1 1 1 1 1 1 1 1 1 1 1 1 1 1 1 1 1 1 1 1 1 1 1 1 1 1 1 1 1 1 1 1 
##$LFILTER= 600
##$LGAIN= 9
##$LOCKED= yes
##$LOCKFLD= 5107
##$LOCKGN= 131.699996948242
##$LOCKPOW= -40
##$LOCKPPM= 2.03999996185303
##$LOCNUC= <2H>
##$LOCPHAS= 15.9
##$LOCSHFT= yes
##$LOCSW= 0
##$LTIME= 0.0799999982118607
##$MASR= 4200
##$MASRLST= <masrlst>
##$NBL= 1
##$NC= -2
##$NS= 16
##$NUC1= <1H>
##$NUC2= <off>
##$NUC3= <off>
##$NUC4= <off>
##$NUC5= <off>
##$NUC6= <off>
##$NUC7= <off>
##$NUC8= <off>
##$NUCLEI= 0
##$NUCLEUS= <off>
##$O1= 3088.50747848055
##$O2= 3088.50747848055
##$O3= 3088.50747848055
##$O4= 3088.50747848055
##$O5= 0
##$O6= 0
##$O7= 0
##$O8= 0
##$OBSCHAN= (0..9)
0 0 0 0 0 0 0 0 0 0 
##$OVERFLW= 0
##$P= (0..63)
10 10 20 0 0 16.5 25 50 0 0 0 0 0 0 0 200000 1000 2500 0 600 2500 0 0 
0 0 250 0 10 1000 0 0 0 0 0 0 0 0 0 0 0 0 0 0 0 0 0 0 0 0 0 0 0 0 0 0 
0 0 0 0 0 0 0 0 0 
##$PAPS= 2
##$PARMODE= 0
##$PCPD= (0..9)
100 100 100 100 100 100 100 100 100 100 
##$PHCOR= (0..31)
0 0 0 0 0 0 0 0 0 0 0 0 0 0 0 0 0 0 0 0 0 0 0 0 0 0 0 0 0 0 0 0 
##$PHP= 1
##$PH_ref= 0
##$PL= (0..63)
120 2.1 120 120 120 120 120 120 120 120 10.06 24.04 120 120 120 120 120 
120 2.1 120 120 120 120 120 120 120 120 24.04 120 120 120 120 120 120 
120 120 120 120 120 120 120 120 120 120 120 120 120 120 120 120 120 120 
120 120 120 120 120 120 120 120 120 120 120 120 
##$POWMOD= 0
##$PR= 1
##$PRECHAN= (0..15)
0 3 -1 2 -1 -1 -1 -1 -1 -1 -1 -1 -1 -1 -1 -1 
##$PRGAIN= 0
##$PROBHD= <5 mm Multinuclear inverse Z-grad Z3707/253
>
##$PROSOL= no
##$PULPROG= <zg30>
##$PW= 0
##$PYNM= <acqu.py>
##$PYNMP= <proc.py>
##$QNP= 1
##$RD= 0
##$RECCHAN= (0..15)
-1 -1 -1 -1 -1 -1 -1 -1 -1 -1 -1 -1 -1 -1 -1 -1 
##$RECPH= 0
##$RG= 2.8
##$RO= 0
##$ROUTWD1= (0..23)
0 0 0 0 0 0 0 0 0 0 0 0 0 0 0 0 0 0 0 0 1 1 0 0 
##$ROUTWD2= (0..23)
0 0 0 0 0 1 0 0 0 0 0 0 0 0 0 0 0 0 1 0 1 1 0 0 
##$RPUUSED= (0..8)
0 0 0 0 0 0 0 0 0 
##$RSEL= (0..9)
0 2 0 0 0 0 0 0 0 0 
##$S= (0..7)
83 4 83 83 83 83 83 83 
##$SEOUT= 0
##$SFO1= 500.133088507478
##$SFO2= 500.133088507478
##$SFO3= 500.133088507478
##$SFO4= 500.133088507478
##$SFO5= 500.13
##$SFO6= 500.13
##$SFO7= 500.13
##$SFO8= 500.13
##$SOLVENT= <Acetone>
##$SP= (0..31)
1 120 120 0 0 0 120 0 0 0 0 120 0 0 120 0 150 150 120 120.87 118.96 122.27 
114.95 150 150 150 150 150 150 120 150 120 
##$SP07= 0
##$SPECTR= 0
##$SPNAM0= <gauss>
##$SPNAM1= <Gaus1.1000>
##$SPNAM10= <gauss>
##$SPNAM11= <Gaus1.1000>
##$SPNAM12= <gauss>
##$SPNAM13= <gauss>
##$SPNAM14= <>
##$SPNAM15= <>
##$SPNAM16= <gauss>
##$SPNAM17= <gauss>
##$SPNAM18= <>
##$SPNAM19= <Gaus1.1000>
##$SPNAM2= <Gaus1.1000>
##$SPNAM20= <Gaus1.1000>
##$SPNAM21= <Gaus1.1000>
##$SPNAM22= <Gaus1.1000>
##$SPNAM23= <gauss>
##$SPNAM24= <gauss>
##$SPNAM25= <gauss>
##$SPNAM26= <gauss>
##$SPNAM27= <gauss>
##$SPNAM28= <gauss>
##$SPNAM29= <Gaus1.1000>
##$SPNAM3= <>
##$SPNAM30= <gauss>
##$SPNAM31= <>
##$SPNAM4= <gauss>
##$SPNAM5= <gauss>
##$SPNAM6= <Gaus1.1000>
##$SPNAM7= <>
##$SPNAM8= <gauss>
##$SPNAM9= <gauss>
##$SPOAL= (0..31)
0.5 0.5 0.5 0.5 0.5 0.5 0.5 0.5 0.5 0.5 0.5 0.5 0.5 0.5 0.5 0.5 0.5 0.5 
0.5 0.5 0.5 0.5 0.5 0.5 0.5 0.5 0.5 0.5 0.5 0.5 0.5 0.5 
##$SPOFFS= (0..31)
0 0 0 0 0 0 0 0 0 0 0 0 0 0 0 0 0 0 0 0 0 0 0 0 0 0 0 0 0 0 0 0 
##$SUBNAM0= <"">
##$SUBNAM1= <"">
##$SUBNAM2= <"">
##$SUBNAM3= <"">
##$SUBNAM4= <"">
##$SUBNAM5= <"">
##$SUBNAM6= <"">
##$SUBNAM7= <"">
##$SUBNAM8= <"">
##$SUBNAM9= <"">
##$SW= 20.6556589631486
##$SWIBOX= (0..15)
0 0 3 0 0 0 0 0 0 0 0 0 0 0 0 0 
##$SW_h= 10330.5785123967
##$TD= 65536
##$TD0= 1
##$TE= 295.66
##$TE2= 300
##$TE3= 300
##$TEG= 300
##$TL= (0..7)
0 120 120 120 120 120 120 120 
##$TP= (0..7)
150 150 150 150 150 150 150 150 
##$TP07= 0
##$TPNAME0= <>
##$TPNAME1= <>
##$TPNAME2= <>
##$TPNAME3= <>
##$TPNAME4= <>
##$TPNAME5= <>
##$TPNAME6= <>
##$TPNAME7= <>
##$TPOAL= (0..7)
0.5 0.5 0.5 0.5 0.5 0.5 0.5 0.5 
##$TPOFFS= (0..7)
0 0 0 0 0 0 0 0 
##$TUNHIN= 0
##$TUNHOUT= 0
##$TUNXOUT= 0
##$USERA1= <user>
##$USERA2= <user>
##$USERA3= <user>
##$USERA4= <user>
##$USERA5= <user>
##$V9= 5
##$VALIST= <valist>
##$VCLIST= <CCCCCCCCCCCCCCC>
##$VD= 0
##$VDLIST= <DDDDDDDDDDDDDDD>
##$VPLIST= <PPPPPPPPPPPPPPP>
##$VTLIST= <TTTTTTTTTTTTTTT>
##$WBST= 1024
##$WBSW= 4
##$XGAIN= (0..3)
0 0 0 0 
##$XL= 0
##$YL= 0
##$YMAX_a= 655101
##$YMIN_a= -553622
##$ZGOPTNS= <>
##$ZL1= 120
##$ZL2= 120
##$ZL3= 120
##$ZL4= 120
##$ABSF1= 16.5033
##$ABSF2= -4.152487
##$ABSG= 5
##$ABSL= 3
##$ALPHA= 0
##$AQORDER= 0
##$ASSFAC= 0
##$ASSFACI= 0
##$ASSFACX= 0
##$ASSWID= 0
##$AUNMP= <proc_1d>
##$AXLEFT= 0
##$AXRIGHT= 0
##$AXTYPE= 0
##$AXUNIT= <>
##$AZFE= 0.1
##$AZFW= 0.1
##$BCFW= 0
##$BC_mod= 0
##$BYTORDP= 0
##$COROFFS= 0
##$CY= 15
##$DATMOD= 1
##$DC= 0
##$DFILT= <>
##$DTYPP= 0
##$F1P= 16.5032997131348
##$F2P= -4.15248680716336
##$FCOR= 0.5
##$FTSIZE= 32768
##$FT_mod= 6
##$GAMMA= 0
##$GB= 0
##$INTBC= 1
##$INTSCL= 1.513576e-010
##$ISEN= 128
##$LB= 0.3
##$LEV0= 0
##$LPBIN= 0
##$MAXI= 10000
##$MC2= 0
##$MEAN= 0
##$ME_mod= 0
##$MI= 4
##$NCOEF= 0
##$NC_proc= -5
##$NLEV= 6
##$NOISF1= 0
##$NOISF2= 0
##$NSP= 0
##$NTH_PI= 0
##$NZP= 0
##$OFFSET= 16.5033
##$PC= 1
##$PHC0= 159.3852
##$PHC1= -0.2082187
##$PH_mod= 1
##$PKNL= yes
##$PPARMOD= 0
##$PPDIAG= 0
##$PPIPTYP= 0
##$PPMPNUM= 100
##$PPRESOL= 1
##$PSCAL= 4
##$PSIGN= 0
##$REVERSE= no
##$SF= 500.13
##$SI= 32768
##$SIGF1= 0
##$SIGF2= 0
##$SINO= 400
##$SIOLD= 32768
##$SREGLST= <1H.C6D6>
##$SSB= 0
##$STSI= 32768
##$STSR= 0
##$SW_p= 10330.5785123967
##$SYMM= 0
##$S_DEV= 0
##$TDeff= 65536
##$TDoff= 0
##$TI= <>
##$TILT= no
##$TM1= 0
##$TM2= 0
##$TOPLEV= 0
##$USERP1= <user>
##$USERP2= <user>
##$USERP3= <user>
##$USERP4= <user>
##$USERP5= <user>
##$WDW= 1
##$XDIM= 32768
##$YMAX_p= 299989015
##$YMIN_p= -222882
$$ End of Bruker specific parameters
$$ ---------------------------------
##XUNITS= HZ
##YUNITS= ARBITRARY UNITS
##XFACTOR= 0.315273858223112
##YFACTOR= 1
##DELTAX= -0.315273858223112
##NPOINTS= 32768
##FIRSTX= 10330.5785123967
##FIRSTY= 30518
##LASTX= 0
##MAXY= 299989015
##MINY= -222882
##XYDATA= (X++(Y..Y))
32767C0518l935J132o689n04l259L306J712j526J231P661m959M607J619n738m668
32752B0508N411K18j873l39L875J737O49n34m963k096j167J73L470l00k002K774
32736B5541N934j648j4408k213L542K527J0515K917j0937Mj679J045N609j0747
32722A6002K214j750Q706o523J180L783K752j174J109l228L18Q146m847m087l061
32707A9540K736N852M332n454q81o086O819k803J710L71j6046J0279Q974k894
32693B6449l738l158P881o714K271n22o93O686k64p069m303k165N788n14N878
32678B5813o18j142k716k306K641j127L038K947L275j669J683n00O686n342l251
32663B7412l505k611n779J326R307P032j985l130n886n166L169Q421p749N069
32649B5925k878N243m408J818r221K157K884j959j587M725Q541p635N355m75l389
32634B5096N524o320J796L491L658j1467K238j002J846M619o480P155n487m807
32620A9860R16p48N681j196K695l921l937J158P331O3j784K05J919m77m141L617
32604B7241k022m705j073P736l219l605O348n176L937j176N415L136m050J424
32590C0211r854R860k834N599o204P041K281o182L945j0396J029Q903q041J87
32576B5545L377k645j0354N152P746m053L428P89J405n627O793j378l42m153P593
32561C3276p995m186k33N552j019r099L940N072J351J959o227j822m936N079J627
32546B2339k239k09J3500q713P37r608P826M130p859K670O142m786n360L422K1
32531B2013k413J626k832J6391j0951L762l652q028L609k771K093o018P855j046
32517A9638Q12N620p615k135R857l769O090j724m39J869r84q401q86J2482k946
32502B7469j081n414N808l559o140J0227p988O019J997P411j1108K074l212N871
32488B8374j3845o573P475O859K710r032J002L558l704Q803o265J0371k03j2898
32474A6632P484K858L310j1138O120j480o563j2540Q320O679k351j699J455N746
32460B2833O05R169k0402r051M584J7372n297o056R012M730J2n188L03k427L558
32445B3757p306J2657l693n256J790K487L820j291n938k017R49J706l899o449
32431A1317J0423K44O522o759q42j602J258l94R73K997k342P85Q66L480k728j0408
32415A3790L089J1713m954M093J643l978p257k672m150Q058n41N91p323J0458
32401B2560L346K560p388o410N021N882R260p212n60J383R82q98l216j63l598
32386B1549o752J138j51N401k710N963O88L132m031j2277L820M962N773J497p24
32371B7278j2j958o36K680o920L568M951k908O7K338n842k197K930N810l068Q598
32355C4679q040j57k715k934k719N131K483o085L230o707J1584k099m993l820
32341A6838O106K792l083l412j100J0476r106l336O015P964O94n852l436l27P380
32326B8613m159L828k105m223n895L895P453O150j278q639L112J98m012p55J426
32311B3609J477k004k884O612n97L69m33O325j51M60l451P901p513N467m453l496
32295B7238n049M026o75K080J243R37p3K438J29j187l969l957j0202j508J0022
32280B1493M660r56n193J189J2518o676j75Q88K634n606O993j1279Q84j919j667
32265A7788k864k707Q151M316P58K764k452K587q223Q514k476j656l144J859M804
32250B8019Q76L612j2404K037J774j769K661j205J423L196l3K585M929k098j2917
32235B0686N378k748n232L687m147j310O546L133j0246O029m729L224Q98K800
32221B3969j1970k505R754J20l474J485j565J530Q717l380o481k039J1176K73
32207B5610p431L086K145o365Q715K414J278o96r44Q274r910k575j4699O137J726
32192A6765k743Q93N445j2124O457O759L578j0451n458L227K900J883J5272r84
32178C1419p445m941J1520p710Q343q84n896p674J0734l161Q484p551P724m023
32164B8939m322m63P665m094j93O546l539j3313N950p547J0548j299K238L917
32150C1033j0385N808p513j909J895O198l153r91J1576K604o208m401k793J0766
32136C2527n030n250j1219Q547J1605m688p20J796j1206K711q37n901K976K621
32122A7932O911n611J0507k473o713k932m318P700N522n655j2913R588p168j302
32108I075N620J0254r858J4003l088M052n524l101o181q825M516l994K693J181
32094A0823J0597J1489J983m156j0039M293J694k625m23R887m458m801n647K250
32080B0867K381k441l400K005M060O86J321l708L644j2517J516p4r09K841n201
32065A1071q02J0787j286L195j411m576K649N410l104K76p339N780L643m543L347
32050B3097m817L815o54L703n13L230M292j2543J572l157O922n97n804J0378p668
32035B1256l020M072P021m63p690J907R225n113l150r50j435N873r880O034J869
32020B5556K111Q7n679k239o52J4941j2893r88M359M32L206O739k196l605o664
32005B2515q845J2994l2m644j610J831N157N034j2762Q010o764q96M772p227P637
31990B5170k975K805q001j558N415j080K362Q521j3017j071M329k952O857N761
31976C0566j0461K401l522k804L860M724J965N105m550m374o345K82L548Q012
31962B8407k333r590R952K886q151q77O219r840N379j647J816m004q78k24P503
31947B4618M272p018k239P248k970k828m079q18l402j631J2274k022l71J1906
31933C2940r286r592J088N44o405J3973l174l117m110m281R489J573L48p917J209
31918A3282r74O450O695k796n790J551Q637J036l403o980k687k304K170L396j324
31903A6959P324L596K171K65j0779m560N864L357m618N137L87j315P843Q54k650
31888B9835l342q90P833j0333m055P93K14m033q26R468O10n837J0181k493J35
31873B7260p074K600l504j81J2810j819q157j735n017j1596N626p98l271M081
31859I225K077R388j798m631L224m989l009J2759j0985j506M696J0613m156n144
31845A5764k732R487P637m811M315r256P191o174n515j501L60K168o197L066q14
31830A2988J615j870q429R731l579L993j481J930L249j1404J997l687J3470j354
31816A7169n352M318j2212M28l267R265O651J1440p694m135j48N307j2732L466
31802A2504o275J650n00k845O931p168J4656n261p56j462q279L51P885r02p16
31787I813r255N202k408o586J382K625M684K471M442J982k897m905P473o459m459
31772C105J2901k342l957J526K089K020r894P58K733M211o120l588p530J4256
31758A0168P74k200k804N318j641q23n93Q306O277J34j414q524L173L833l551
31743A6433m091N313K319m27J480j1347m153k71j949Q962o07k712q091J586M287
31728F732N020M340o864n163j734Q521o288n74r13N29L889m69k63o12j386p630
31712b865k071J2559L558O162q858k226Q791J68r770p85J051J0603q639M605k501
31697I782M666l788n070m075J4646L343R40k554q979p88n27K870K883m437O543
31682A5455o249K770j97O430n472K445n686N462L684l635l603L525o506j351L01
31667G373KP27j214J5530o099n080M489k36l326j972K904k602N377J849r405R043
31651A7360N150p055q76j2621P470M982K925o133j828m625r05K256Q679p945Q33
31636G667Q236p537J060M281J95m002o630P464j287R084K818K416n936l646j3114
31621A069m42N666r8N529P416j457M782j8950J320P540o620L753j525m84M969
31606A2468P511m822M97j346o804o98J2556j879J718n612K337n798N575N914l222
31591A8395p651Q98N54j670L220k03p64m452j159K251M455j701n416K20N487N224
31575A7688p753J0172j4346M847J1170m759m130n07r862R810K975L10J904n859
31561A1660J361j4735L975L395k54p762M334O388N507q084k9O239m858O598o78
31546A3057o482R328O28o126K425J838M166K484j0358J207R203m206N100j2820
31532I444p542J0086l828n157K26O634K536l288j1006L506J1228q028P0n337M677
31517D221O100M577j524J0693J180m875r482M748J720o680P552l834j1997P839
31503A0238N663n398J620n25O144j0250L117P544l129n05m358L395J287k136n999
31488F708R710p157N703q11k482n60j935r60J865m857l174J6609J2115j0466l477
31473A6831N272j737m721K162l013M794m255K747o266r028P964N894K79J3268
31459C0191q540q39j1907O68j923K854j742J065L8n453k838L822P786K591J48
31444A5921l888J1607m864L743m220j1060j498k559N785K247j0541P643O662n66
31430A4412R27P786o035n389M607j7754Q141q20L290Q1R388l359J837p292j018
31415H802L923L634p313j2015K341J844N259Q079O606m485k1121J0860j081N251
31401A0584r654O749L625N729j136p717R961J59o028K035O145p942Q54j695K727
31386A4396M382o179J213Q13j0412M735M211j632j281L248N467N169m252p248
31372A2630K26m845K654N497J256j320J389q273L403l751J725N228M300r776m171
31357F172P296q368P916J165j4399M281k180M506l928M588M951N713m601j05n198
31342G809j173N33M958m428M234l79q071l839J3139m975k682k859J437N365M292
31327A3361j743q479N135j505K365o867M894o291J5332m158k664k405M036L096
31313A4107J1465k492j0640R41N668q499p82P820k438l013L747j0330L777O52
31299I983M769n451J3675j0648q66k365K09L378K099m882K78p488L277p89q093
31284b914L109p30R078r86r147M065l937R510k283j811J2896j4427K550k147P086
31269I912k670K012M02J022p098N946J0086j2199m329J0820m81l132M815n656
31255I450J764N0k777k942J416N277J532m711P225k248n041J0120j3054O220m176
31240H105R796j0507J774P670l033J330K005r577N113n003P337q564m609n425
31226c588P117o0J6457K17p489q169Q538J665j0576o07j313L675O452r704J5787
31211A8402n357q161o567P454L313j628Q631p749K18J0039o824o975K387P111
31197A4294K67m664R592o636R28k57o484k711N205M024j166r974j33K408o18j403
31181B672J971N6K536k816j67P10o183n5Q581p843k288M396J8294j2152k521J0718
31165A5909j2161j1307J4598j605O544l694l058L533j1902R76R577q90p565O067
31151E022K637r592k314M593r10M306Q397j1755J561L521p335L834M027k581M837
31136H248R77p263M585p859m742O503N616K502K637o914k094R771m047M070j0505
31121A485M630p710L030M174O415q412n77J903J453j211j17M394k060m551J287
31106D133L268n549J90r298P529J505L487m728l445J30R50K286m877j0153Q639
31091e933q504J2486O24K663j844r37l82N820L896K366K489m526q408m08R69p050
31075f679L730L859R337m391N033l746L701l182K00r216N769n942l603p155J0094
31060b191Q280j929k325J823K720k076j6379j212P719N55m329N384m240M148L101
31045i51o56l650O267K144N086o613n617l112j477j809q67M684O498j137k416
31030c626N996N003p912k529o49O908N375j792p426N512q502p84J0371K147j2735
31015d643K254J2099O108j6289M201K061l127j376R202j042n111L391O561n638
31001H651O68o192L539r992l318k863Q05M103O212J063Q007l826K02M709p422
30986D346Q025p188J0400m240M895o987m140p80m749J2950k58l569l512p124k75
30971b206J1551j1608P78N595M082o53L311ml123j649m948P930K985O354j3494
30956D901N070j587m980M146L412q973o959J1051L110m153N11L087p52o137n62
30941A185j900J1376O231l832l943L29Q65k272k707K08p00K416o502r533J3551
30926D772j610K10j532Q239K978K945n814q053k76r330J426P595O56Q855n269
30911E792m693R31N05K421l658M267M213l30q400N533P732k404j1595M386J753
30896F453J586k979k717K813K685O666r6J459q470k604J4140j5624L296M877q205
30881C280j150N78m519O862P556m507l944k430Q512p996p886J0436O189j0042
30867I39j0746J0687m062N273K651j0675M99K632J1846J568K41j1070J3634m525
30853H892n308M886j602p165L64k631q143l482L940O775P782K947N917r691m302
30838h21M065N31L009M916o543Q229r816P462q510m522M341n666j790M928P715
30823G528j1226O024k163j115j992K731O50J252j919k963P314P867p940q606P981
30808C423q415P375K0848j2522k511K44l727M260N168j5670K125N746L982n763
30794D563q77m600P546L428l014k454l212j275K585k233J445j511Q698M562q067
30779E584o15k311K121N671p329M594J2292j388J462j3706o988R017n755k806
30765a57L848n887O447j0306J3738n843J089K85P208m310K322J420L653J31p536
30750F102k450n624R77N881r745J21p050J8419q736l237R676l331P555l573P112
30735A2097q913p416L028R008l959L029P6j3935O68Q778J461n005p838R148L863
30720D090p039Q951o41J054m39K665K133j1985N459r531m61Q712K826K20J136
30705G150k487N050m311O278M309j3619k123k43K855M229P85L054J388K607j802
30690A3120j0650J340Q008j2589L320k453j551j524M765L319j4921R645O876o751
30676d6j516l602J1518K852L936j3668K64J259J651o11n067N41Q45o725Q196J904
30660A731j015K77k554J0951J627l991o76r76m369M870K93r806M993j3186J3318
30645A487k223j979K661P40L131L310l013p232J455N707m802j1592P36R576Q830
30630F792m01q894p543J606j581J442O558P829J742J205p296n688l554l702J0848
30615f37N998n912k98J890P781n006P58J802j857l628k574j667j834O608n698
30600d274O074M861m854J0812J733j5184P314J226J384l633j2176k356J4169o471
30586a375k794l458Q481j320p261M031P030j964o522R537l042j1032k436k049
30572a4174J0373o454N676P283m1j0850J101j696K08L545J0992p444n075j615
30558h171K164m53J0662J064j396j5415K211N580M456r115Q39O340J1414j7129
30544f949r270R721R422j201K33j0336P487j0029J1985J091L26p007N051N349
30530E873N752j3864l526p281J3177M017O042q660n765J607N664m055o838L530
30516d327o560J8790J0274j5162n666j582K089j024K733J1653j0480N947m192
30503B493r28J869j1485K304N20N13P419r74M125j577p017o144J0448n908M598
30488B56Q520n554o403N658J685J051n306r373M041L657k023p938N714Q386N326
30473G697J74r870M54J821l322R089q554j616q543N703j954J80J0136L768j3800
30458h637k977O481j3239R100j142P133n072J1802P925j0088N91P907m401q809
30444c426M452q4K685j0028N505J260Q19K271p037J671O380n047r025J143P272
30429a189N393r79K838q739r21p545M237p396J3095N177n235l674K751k053j515
30414e755J306M387N712l816m142M374j546k306p070l651Q116l481M740J052J144
30399i36p221Q295N880j96j0375J485m68K975q78P28O621n645O777k029L160j509
30383F664q40m607j154M381k941o931J317N752N52J665J223l183q87l283M803
30368B531p045N735l901R221p376J092M434J278k236L929R80n885l832n576L611
30353c040r52l035l509M069N345J400L868q699k738r0Q465P50j0357Q884o368
30338f007O748K99L621k071j1624k231J0445q325J5857l263j0274J5010j0719
30325b534p377J184P01J252L416K32P72L17L636L425k857J636o202Q673n013J077
30309B338L79p485J337m505J3869Q624j4770O296m401n105J76l91m402L036j0373
30294a5377M964J7676Q263q853r095J181J550Q570r355j2334Q586q071Q656N550
30280A911j09o520l155J809M682J348j36J460j753n218o0Q502j170q991L579j510
30264e331p621O38P794o22Q404m441O128m891M49L669j3903K95O842o178q493
30249a7261M767O550Q820q668j834M246j2412J2278J359q955K374K668k673J1746
30235C005O466m753j452K220m953o85k438K920n417n699q07O614J486N0K101n480
30219f822M857N265r02M286r424k999k912L219Q01N132k802K250n821M99J498
30204c875J119l40j198P68O550o429J400O074N620k868r741j985n445J516P601
30189a233n358L883J1569L273j2335k596Q5N740P478j0556r190k912O195n918
30175a1875o668R083K143j185r407l61J1410l574Q63j549M349o982L774L668M730
30160a581M53m587P00j775M183p717J31J0162L012r085q035K144N672o113n079
30145a7515O640Q347L545K091j6258N714L93l04J52M445N449l193P16l508N325
30130B039j996M39k463p472M980k303J0594r532p156j396Q298P789O48N554j762
30115F261l608r12j154n549K646q03o691P929J1345P213o151m286j655p840K136
30100a119p8q020M598P294n338O604P31m903l279O415m151K931M500R227j9616
30085d204p358P848N558m972M357m675K581Q054q788P360r529p889R738J1526
30071I607j2030n594Q612n891K348j501M489l648J994l840J623n96L325J288j0477
30056a0291L558M221j3483P496R149j1544J3825J463p240n925j477o545J2444
30043d349r768J3237n707l977K645j898r495J4398q514P586l126L190m140R827
30029i1k612q166J0455Q147p974p35j42m342M191R974r506L763j2089n326J3557
30014h96K0p532j776N211J305K616q0P717j0266p931j433O404o029O950O041k176
29998a855p753j72J2297j840k870m325M427k1m897L919o041j399l244j088K283
29983a2579L499l984J4656K547j7559L132J1112m224L388o27m379Q67k574Q483
29969A758n652j2264O270Q132q768J251m002O820n131J501N337j507K75P79m772
29954i973j0647J2243M898j982q52K801m912K933q586P545J1829n438P876j036
29940F699j8484l275k651Q548j026P329K78K772m750N966K684q655J810k214L97
29925d572L728k127M601k282J1388j7959K932K645K888m370r373M918J2697j6202
29911a1088N933j091r117L422J2058M347p126j08l638j951L654N831R58p984J0960
29896E060J573M353n832p749K91J348j0238k089J8281j236n229j597J831j077
29882b310P711q26l037P755m440m8n025j0191k124R991L74j1265o31O192q157
29867a6031Q251j092pP904L923j132J0991j5649j0793K378O743J618Q33q657j958
29852a2678N436p86K750P212L04p178Qp539l874N752P92l248m761k63J1935M029
29836b109k127o638p081J0775l241k201J0513K397J601n936p496M172R167J201
29822B997l979N531m868r554M457K98K358K433j0425P59P489L63j010O805j0476
29807f822K317j098M867p426m592j749k903J320O4K585j739M325N350k526j284
29792i311q667Q636N372j2438r77L559m051P817M712n686J3356L514q887r105
29778a2156R747J540j345J855j561K661r799m2P870j465m107l420J0492L43m771
29763d158l398L602N432q260O503l928N516j0538O33M056k344K878n521J0985
29749A458q501O193j353J0019o810j696J715r759M030l759J4338J652N224q951
29735C800k494o578J998l852K213l112p368J1856l971J3229j5797K982M761N855
29721C522l755O8K413R536L170r087j0766K707O821n448J337o117q038J7248O189
29706I800j0083Q57l604N47J1894m431q243k726N33L687n734O20N857j137M058
29691A895k766P45k218m122K422l420R931k353N411M12n394Q53Q06j827o802P294
29675H67K72l125J271j310k000R299q004o464P92J079m563M084K236L838o492
29660h220N120J834O282p834o196Q63q074R146l355l89Q567k773O486K546K788
29645F791q612L056l359p315k588R61k333L862R899o809P158J819m069l651r32
29630f122k454R243j3103O583L106Q153n373o962k43Q712o976O429l16L770j631
29615B816r615k715k607J1034n379O869p059n16r019P315Q498o866k230J389k390
29600a0475O619Q001K019j9460P036M088q738k930p788J4225n257N912r119l31
29586a6198Q759l88J942k974O218o21j0960P314N380J449L479o0j0290r81O197
29571a734l831p255L873j037N438k102R264N206q943r693P276l989m711n052O642
29556a0648o715M442J1777J0264j3003o069j815k893N268j0636J3776p358K898
29543a0712K247N915P15J894k16k982O10Q15j1549K602j258K441K039o706Q1Q802
29527e262Q100o54J79j0636r332k975m991K495P587j770K756P912k670j798j537
29512a2596J485j1626M109R236m462L336l625K581j205L107J927L452q451Q95
29498a1837L569m388J632K213J407m503L610l676j103o256M791P159k776l724
29484a3882N462n48M211J436n023R39N960j3865l675N597k844L248L884R576O50
29469A126l169j848j1830J6938J106j2579M909m177n152J4262k04o512p051j619
29455a5800O214j083l242k218N075Q610m382Q35j088K492q972p159Q116Q604o664
29440a0662j749m721K756L566k739J269J4128r804m695L072P24j175J0036L990
29426C996k330l136q380J0535j0414j745L184k279J017m218O411j454j335Q47
29412i301k39j575j567l821O001P519m797m700r82k701Q702o351J586J836o486
29397a6876Q623k084J0088n644p174p54Q70n870J1542p89l444K17k204O713n169
29382a1955j865n886O939l886O207M556j0948M026L64o629J0606l66p562Q502
29368g897J1191r206j4652N829m054n76M727P68J0456p322O165n167R119l106
29354c725p340l16Q958q13l211m237L900r549l141N850o097Q628j120J2722j0412
29339i903n12P7m914P621n53L582M544J266n924l606J564m264J2421q234m9K328
29323d556j2128L325O239O158q292j7222N031N374K0924j8925N073O03j1117K666
29309a6847M169M099N032l787K609m117K722l859K303j0134P067R57N410p113
29295a1489J0427j2868k43J866m082j102o54J0262m442j82m699P377j4253O119
29281a7963J574K767K949o066L227K810O012r53m455j87J775m557J34o960M01
29266a9492N710J76M880j0801J174K932m188J793k919N687J0145J233l320j030
29252h020J2062k803j8648l235M36N209P802n640J472P611o466o301L371m358
29238a7508K2547m840j6699J1042K800K983L994j1620l922j708m033O534M04p45
29224a0771r58m122M408J971O4P07o635L99Q912m618n587K277l32N761n503N85
29208a3442J0316M947O892j0391j4425J0662q712K448j109J691J132Q113J844
29195c4k734r110r27l12j542n615N487Q732j751R631o651j0954N074J0576O19
29180D89k867l073k646k375P224k33j74J688l699P327J881p279J934L178K166
29165C541l669p586N034O357j1407P305L980K709p056p691o38j173r002R350J266
29150h680l25L549M072K565m867N539J94k264O777j1216o651k139N427p609R731
29135e897n58n334k843m210J7317l141P803r746n201o572j334O711L829O045j2286
29120a5417O703K447n138o484Q141M561O414p822R6j1537P839o584n596J653n850
29105b6574L290J0529n597m56N594Q560K053j660M120o562j0108J1756q889Q982
29091d962O99j538M476l069l900P036k53j709p833K927m30R831q211j1531P051
29076a1416O716p392K749L354l666J591p096P838o627j091P505K428l998l154
29062a2259M497k065k0m15R736N63l601L818p318J195J725R7o269N449q136n605
29046a8608O653P54J0088p321n146O364K83j1757Q948J345L035l564n044P770
29032f200r095N86n491R059j9J0125k06l310r59k610K326N843k94K360o370L446
29016h09l659j821j0338M800J0153j491m330p934k713q73K246N965J0608J34p597
29001g659N635Q64j3513n9N696J787k359M96r311J055P803n727m09l281N315M06
28985a3261R871k982m199L491j088M116M888m152K896m791M163j061n858j028
28971h995K170J670l406J89O143J36m309j463j6691R260N455K502Q45q881N631
28956i744J513l210j373o324K34O044p123N34R553K755k174k134M484q494N686
28941i773M089m477O630L825J509j0083k395l376J0405j3481O154M918m315o19
28927a0989J2319j0738N842j0655N747J952k368O99J665O73J257k947m796J0988
28913a351J357o253n963R810j261J163k73j112J27p72l699L678l191l091l717
28898a4548O738L577M207j3126L505j250J1099l278J613q528P431k325p808n424
28884a8117J1022J2056q994q48o259J654k680r040R076L911N751j1467j7661R296
28870b2300Q939M794O044n120j0175J3166n481M570r61J690m438J891K788j2986
28856a7579R559l693N568j909J0485k556q619m27J376k439L81j894P451l365K735
28841d926M243l207p411l448M717N904L502j0387K369r57k60K953n187P559p148
28826a1684j054l924J597J3069r356j990M448M141O84P064j4725L839j1475m129
28812b3495Q044N577j504Q431l243j134Q89l880l437k39J97K066O816K500j1439
28797a3851M689K489k257Q10j642n830L419l420K603J3132o361N202l844J903
28783b958q869q945r67J4026o192J1743j993j562K202l003J269J085l240o41r8
28768h143R801O390n17j1629j923k999j487N794R407l957m766r85M713p10r733
28753a0744L971O997L259J750j0498l985O407r999Q267L89M086P56n888M628L322
28738B718n376K972o299q05J653k517J83J551k767j843M714P18Q230j1894O606
28723b156J949k009L314k73o057m876q728r112O280N790P493Q5P63M775M998j7143
28707a4907M278L661J824N4l993p94r45n769O814N600m054m074j37r181l86m6
28691b2055J806P324L238l89p12p210K632O805R85k575j796p875L365N614J1300
28676D57j2269l196j111P710k484n81n709J6786o422q837J815O562j1699n8J1913
28661g123p898q368J3979K206o28L126R401l545j1579O568r316l617N822M601
28647f371m000P81l217J555P698L25o217l821R310k149j301J233j2235k26P636
28632a0999n949K092m036P472N011m418n618k408M066N461m636Q094P44Q625o878
28617c377q960K612j404J1530n518j3633p216k037J0611Q300m035p140Q041K73
28603a1953R35n65R26j749l237o767J223J4497o425l863J0329m492O013o416J428
28588a0116O00O255p868O143q96N66Q02o563m458q29R364l550m757L294m41M781
28572g673j342o825J0244p719J0090p00n983l620j16j774n484M924R164N72J214
28557e028L038l137R192j0061l110J0040j2614k895M09n604J2318p137L785L003
28543g801m527J334j3J825m027J482R93m418L273K850o302J314K931O482p426
28528a2030j631P769j491l95l836J4737o156j4150l98J0200J697j780k462o46
28514a0572R334o662n575J089L586l931Q672Q47K035j0786L479l083n856k168
28500a9591J0075M705n509N605M855m223P226k645K864j0498k255m22n972J6506
28486G21k121n062L284m911M82j344M958n081o302R47J039J2133m927k442P155
28471a471R553r986j2739M518M311M521K943N032q731l185K163n760M078r363
28457a4116K482p345J0679Q977q536J404k094m506J639m723M492N78m761J885
28443a3945j627J2124q82K209K481r044p544L575M85K3P822l630m040O071K055
28428c867K763J217k636M092O929r650j843L253K910k91n417r3M959k716j1535
28413a1925k297r51O534O6j559J066J245n9j675j591l411r347J3069N042m939
28398a0732K705m139Q724j0452Q537q941J6952l122l96K03j2759q10K311J0236
28384a683n83O012l383k618q159q539o562J0746K785K140J331O53p911J5417L024
28369B670q511j482M356l160j0891k468J416M014J594R020p949K645J011j1622
28355a9357O02M910J0431l190M51o859l628k861k032n12R833N763J074L599j16
28340a892l653r378N78k190O729q160P441l017j75K972j263M874r723j453J735
28325a6575J118k8K397N751K45j23r764J6464K67K686J907J824o745j95j390n910
28309h071K216O291j2699j566j976M711N535k753R36j040r918N309k485j928L840
28294a3598n450P286M105m710M055o517L982m67N198k957p568P425K553k290J1443
28279B490j3041L438n47J719q16O067m457J0343j4029o454O59m574o349K215m424
28264b7760j308R382O887m467M450k079N739r934J222N413k320L183N544j879
28250g927r76J504J200j4865Q664P371R440m588j1079p185J09J2084o299J0096
28236b451m403k297R630n624N964r625j1096K780R523m869O906O200p780O48l788
28221a0282n278j600J0889k127k427j800o241j51J0224l75N465m87o767Q402j1650
28206a4205K529K576M572n170N302m397N893q61L472k7m347j0933k710k056J0173
28191a0189j227k285n073K55Q441O739j1602j294M185M520m466l052N345M214
28177e489J819n15m353O928k955m128J684Q48p443N369k255o523O316N128l66
28162e935n040N045k904o424j333K226L236n247L44J2908J985j767p279j255n093
28147a6533R357K467j056P9o759m611Q437Q5r93L43M261N438j350J744L910o427
28131a608q58L904L2n979m918j270J3385j0658j961O371N73r794j031J582l761
28116a5991n30J5273k348o525J640M316k819P999Q748j224j0649q420n165K847
28102a2848L63k199j811P241k561K854n542J38R144n658J743l353j941J0765L086
28087e79r301J495M227n076j80J630N167l912j320J515p632q817J0814K545m977
28072a4401L293j046R775K371j3115P3l384K138j156M03N267k187m257K698o901
28057b0429Q372k641J905L927m330J939R77p375L841R445k513N045n552M363o505
28042i531J784q952J2849m515r866L668l619L374P621O095p371K20j3186M489
28028a6940L320k058k848J585O662J1446q575o808P975k806J201o761J5706n028
28014c929P53m064n575L164O263q349J071J2014q491n921m731K247O831n729N241
27999i205k861J380j452o774P858Q054M985m154j0559m866O277m098n732J5080
27985f067o524M812J347m942O043l776l131l304M734L461n115l422l788M196P820
27970g656l80N469k1607K898J5105J67j487l574N831n877n386O246R90O599K153
27955e09O90J846j5250P699L081k284m443J4532l51j2783k343j224J554J478Q972
27940F65q151M159j0651p956J1182M200K841r116L253p024J504N627l808P081
27926f194l745j010J895Q86q25K811p078L225K468m016N735r017l69j174n96L590
27910a3414N319k425N417j0269n297R094J1620q284L656l326J507O202n842k07
27896f249J785q702L628m959J2233k251j327J158j3080J1832J744K4k184L240
27882c108j6783N453L104n218j997J3981K6j97K343o234j704l639m154R793N273
27867c061l788K133k981J047o095o02L324R266l024l716K485m348Q04j703O445
27852c814n176p835r71J3331N814J037n187k898k642q552Q887k72O920j1169Q13
27837a1714j668P322M586p826p906J2022m607Q205r946L971K983M99n314K37L101
27822f055K875N932j4676Q10n656R064p6K559O498n687j2733P895N279m612k837
27807a1420Q552o523q72k346K798L111K637l703J35o118o94J7567k194o802l307
27792i179K95q581j479m046P771J2947p491j692O160o985J041M052J7210K275
27778A2298j4397N89n912n160L231M054O810p409q736K95O048j05N183q261q051
27763a9523q65J1556q962n377O486K190K76Q670j283N776m789l151N56k580o629
27748a7649M548P570k537p164k611R816P928P357q271o158j9L047l367J070q614
27733a5054M998j8P097r465j356K297J2590q026M406m998p298m038O093L827J1037
27718B092k797P268k74q600n48l423m487j591L638p213K779P516m810L01J161
27703h988q52l84J217j011M0r87j332m503r705N318K1236l449n121K195k514m129
27687a2969R67l098Q559J387m381M307n983k889J0326l067o451m000N225L231
27673h836r958J1958l022M098K77O172j0037n15J283R283M773r696j0225m693
27659a9138K346J0541J2084j0834n977M443m255J3122o768o716K801P144j982
27646c189j4000M518P135K050m48o248l80O291m664l356L579j298L760j397Q63
27631f784P141j1637l031O324K278O765p660R402o999N251m211q565L914P921
27617A09p470j034J1316j437k096j0006P665l451n737J135n685j473J3679k684
27603g169m138l358N129P301J501j121l539R775j6457L620O61p088O919q877M242
27588a2599m391P537j900P92Q55N42k78K565m795j44n196J1420Q20m714o30M545
27572e571O230j1734L782K651P078m287j199k726P739n928J678m104q707K666
27558a2432J0320k786j716Q468j2857M080L50N481r595j62M262k683N412r617
27544a3475O386O11J45O978p871p443Q260M093n009O268j2209O610K086n753l449
27529a3772N778j535j530K007Q689o357J179J233l235pJ2887j0390p543N171o285
27514a3710J613J159L351l806j0241j348O216P260K779L046J206L210j0928l437
27500a3630j350Q641N466j086m049N421L303m772j707p202j048J2618j894l738
27486e027Q65n3R540o20k70j4304J239M941o383o604J0917J4730o146J222j841
27471B206q181l534L439n706L902l534K485l16n860R708r93j23N306j0388o023
27456a7612J3115l575K436k133J2580j5803L00j323P138k935q01j670J0596j882
27442a569j13l922n237N457N00M786q847K876m526j060n501J1391K291N485Q57
27427B868k21j0478M180J749K6r66R010r472r196N765M641m508p810P729K079
27412d604J038o109n5P377l993n33J1505j839n32r369r69O662r228k355J1358
27397a646o467K050N410j1953Q1J2520J590N82m064o070N412j375K737J732j0883
27382a0344N331m526O610m12L182O706o416N924O213o162N110J339o439P73n663
27367A226o279O670m099l264n393n648L99K505K988P134L14R34P04l925N094K665
27351B025p905j2560L694N336q167M820N656j299K028n356O759M09M946m235p79
27336d628l525J092J509m489M645l536J486r222J2720j649p526N18k500N960N370
27321c775m588j085l22N80p74J2049j3036j087P69L564M933j79j466O228r354
27306g543l285K957j0329J060O606J1758j0362K092R076o639r265N487Q016N39
27292A68j906J750p953K909J59L140p315j346Q839m176l591K224M192L352o885
27277f439n416P15j440j367q017J9282R403J361j5593p710L998O60q784O604J621
27262a1122k490N079o640J0087k1704J385P803P354L000k948K122L733L095j1386
27248a2632j331M882L387J77L011k892j721m21O179k644j657o034K968J16q43
27233i455K341l54p267p7O024N826o981J2j440M92J201q5m86J1024l382P896o242
27216i53o409J343J457L618r385L693L84K144O3L561m384K674O459q901n787K3
27200a0400p71j659M358J125l763M264j3251P246J268M612q35k529n274R872j3448
27185a9185J3337J746L600m813r849J8721n616o728n551J3859n327n681L074J88
27171h225M027Q55K514j1677O734m571J509m986R032L259L120o762k6K057q920
27156a2060O03l998L582O919J031m167O004m96n255O500q348K503N994o967P763
27141c92P99k606K306P439k556j4192R89R056L650o224J712k332k631O742K849
27126D609k50j354j193L418j2659K135l774JM686Q310r65o014l910M31N390R78
27110a61j331O89n858k011N40L408K590j0885Q098l137j551J359K532K481p755
27095a0992O953l300J445L333l946P235k415j1967K037R046K682J256O050j4628
27081g211l147K863P246n819M474n831M76p555L986J0233o64n424M477o46l213
27066e755M395o241q485r14R097N342O351j4866K497p484N490L39K950R804j0957
27051h437R036J697O955j3036J286j926K331O88j0003Q575L369n82j498j826p521
27036a0892K610O092j989m187p380M222l993O475p409M04p3N749l163J652n187
27021a7069J3635J572r21j28m322L363L89n2k532l871Q64L647j703p503O865n614
27005a3380L295K75k33J1232l831K517J333n945n535l898O524P449l604J0830
26991G029p506P179m700p298R849j406j371j2408O729k431M877o951K72R135r245
26976h246O587j1603p47l16R526J602n616p171p456N850O710J4693l217q039j008
26961h451k574J362O445k407j2722r58J5697K177L80j0212K565J249p548P168
26947g829J297k478j420J583O165l580l616K710J0513l711o56R891o762K714o675
26932a854J24L019o253n19N399J46m516r21N584l382J780p470j870J820K514p558
26916a3957m82P317P819L183m986j983N683m530m145j0858J3478q195l005Q697
26902e964Q687M406p926k393m449R742K755p970l755o847L351J4626n438n976
26888g151l981K976n221p30O120J743L827p063m901J571Q397k514R575j1039K151
26873f240p969l107P468p51k644P105P094J031j671k424R36o157N986j557N857
26858B957M021r35p718l128J799K239j402j578M472n71r229N792k280j019K563
26843d017J161l378J829R077j2476M827K835L036k331o432K895j534Q141m697
26829a064p531n860N281J185j045N16l732J0696M128J176j0573K324L442m014
26815e071K82K903j907k036M155j0667K494P066n66l646M646m512n579J2604p023
26800f857k695M588R346j2930N590l441L071k158Q43k425R69O422o45j3910q56
26785a5088K610K689O98P062l380j523J976P188n556K156n656O679l53r291K478
26770g311m304N090M267j767k087K850J262J031m627j4353J1471J1814j737j1529
26756i930L706M430Q275m907l919J1795o857Q449j1256L94j741l099O066j321
26742H5m245k41q4K249l442k062J1139m739N164m815J404K568m531J32l07j3j699
26725c437P51j2718Q043R173M706o863j690j0381L275M432J586n787Q461J255
26711H06j3082R823N19n823p526N727Q305n076p350J5328m16J9L024o294q645
26696a0661Q932M942j2192J34k928l689J3713O76o600P050m787K807n537l531
26682a1671R930M64j96K803n571n812K162k217J869l688N941m196j90O425P430
26667C483l549q983Q093l813m35Q497p662l150K226J835r81N098r791K442L603
26652c087m816j1509R398J680k25R886O301l230K895j1896j0026J3718l981R953
26638E061m055N533K411p276r375O668q01L226J552l852J769J0002j3221k057
26624d415O331K432K893o859q555K668P648Q813j4931L732L344q54j815j570q124
26609i262l02M298O51K053n13m039L861j291J734k305j1348M94J2812l128N121
26594a164J198o424K23K089K42J727J718l327l641K800P820o72j678l949p713
26579a0751o076K052K087k643N993k148K57P504k966p410m70P955q028N431M260
26564d953J0041q828J4939r692j476l911N914j0457K220l979p359L497J1735Q394
26550F085m657j046j165p905o189P089n44J2711n753r187L980j416l572R501M367
26535B299r007N315p145J1381j8399L647P946J3844k1481n625J3489K332k132
26522c536n539k857Q754n278k951O969k753K18k770P902j379k929N918p24K404
26507A449j88q56L119j034j491o197L533M28o929j41L007Q335L768j1815j162
26492f174L906p677O973O68m17R536n193j0731O177M201N94j4601N42J0013l064
26477e247O028q786K592P539o19l304l117L003O925r762P532k232k65J288m49
26462A126L643k825j0550K688N485R23M291p723m333j1242M430O110K018l839
26448i798L134P0k368J1847r80o856r61Q781p777L820J859q936j07L401L169O715
26432E013J986l234J135n559n430l102J315k343J0076p932N192p282O314N616
26418A765L07m331L062j613k715m74k419o582O834l845K014O305o572J0342K242
26403D320j3547R781j257l555l571J0910k494q487O918l443m37j558K967j561
26389e014K910L828m93j382j359k556n547P677r838L566R706p228q376J890P870
26374d346j381l547j39J966k383L163J1639M763o210n265q170J3580m57k139k819
26359a745K693m102o151M304J329k098M402r03M950p825J655N737o235j0916J2706
26344b199L494O101m430j566J2239j727M056j1417L31j0186J781k992n124j355
26330a2994P869J1601m334j6711M998P079L762p682O560j692r19l870n404M263
26316g474O279J830L81J601k180k507Q13r658j93j247J20J665p636J1843J442
26301d921N857L703n323j2495J270J6143m659p749Q747O902o933k586P280j691
26287C545l635L366K516j1208L354P462o926n217N008r231O917N058Q46m607j5208
26272a7960R332l844J2162K233o602Q940k908l613K298k687N741j4119P746R829
26258F548n644j2999k042J1936o382K432K058L169r013l493N917M751J147n569
26244g184R381o32o594N148J1983j6303R568q164J204R74o716j166p47N811J916
26229a521K653n561o203l708J4025o84r689L146j796K89O453m352K763O591J3765
26214A6171j1255r323m911n503P437k402J105N629J0453r515N142n361K031k682
26200b984R3q47K747n968n958J388Q364q92J1729j703J952j1182K111k946K036
26185b060q08Q82n36o111k047j436K0242r421j4497Q878M200J897o694P244p002
26170g269R584r074O986J2905p265m820j0871O32M261l882n636J798J603M721
26156f327P208j0275J2399j826j5021N177N476o896J2712p853P57J5451k942j273
26142F767r840k719K574J133k69o091Q156l61L441J248r896J4523j557j3945P032
26127A96K168k704k614L280R431m090m595M64j0317J047M510l223j383R76j845
26112h699L198M930p937N547l246J768Q472M044j1303k493P266N208j4923K42
26098g926J2467k112j140L885J820p824K767O435j2653j671l586P661L624J960
26084C707l725j0568p715J2161K672P91K63O52j218k978Q652j967n218l378N637
26069b232N268L503j3231p206J095J2573o904L293O517m175l148m303J0534k157
26055e73j66m048J738k389M327j500k152j143k230Q406o38L081K022j253O8L269
26039F819j2783j196Q480L187n645K858j259M162R743l091l165k022l837N739
26025G990K354p431p911j821K902P5J6432n552M673o962K035L180j3633j905P236
26010A662j18m934J618m428n278J4074o843J449M778k54J558j0624J756O030j715
25995a269O72k824j024N117l305n601k388K725k755M322P037N339k126K678m816
25980A782r2r814N75O434m978j851P510p454K724m727M78n144J3666Q029r023
25965a885n090K037k888m571P797L657P023j535l457l838N509m808J625k261j0423
25950a3108J4549M540n399Q442L955r023J412j0853K152J270J1n305m919Q700
25936c576l795O358J4917l527j5480R705Q93n618J565p254m94P435J0887j5400
25922c384J606N833r885k170K889n046q56Q962L662L422m869l848k020p608p17
25907a4029P306K821R567j103l400O237k642m387L190p816k170o545Q754M044
25893a73l739J678L214L387m177j221M948m89j481Q422n782j3225j140J3671l661
25878B32M36o56N075p049q828M023J061P65j2919J1839J951J2383K009m583r515
25863c776n78n848j550P794m414P879p26n191m164O016R965m02j900k928p762
25848g585R878j4874R571j29p5N369k999j1423p300J2297Q710k819m941M679k483
25833d124r26J803L711j706J860J674J843P147k941n796m787q836R478Q552K996
25818I948j4529N847M530m943k801m517O843p937O267k100J534k615K835L455
25804A817n570O571j759Q073J053p934O93M251j082j0389k387L027j4080N248
25790a2468R615R175j739k434N716l172p884L619n702O251J450n70n795M648q749
25775h039L918R819K22J564M041r334J485O952k58l847K369m938q903Q025l448
25760c72k64o027m85j134J2954P301n508o090j139O594k403j380K325J234j0301
25745d695J4049r456L023K059k488m46P367j715r4q162N180n658n405R608j3251
25730a0084J2790n421j044P478J115o293m46k337j379M387p963J0286J11K961
25716D161l627P405M160n819K688q621q988J4418j474l566j358l423O88J2480
25702I124M868o184j227j416K495j3109O609Q366r00o58j5970Q840o760N066k380
25687c236N096j106m88l582j540l802l521J5359K226p716l828Q6j938K547Q415
25672B972R613l496k194m707K649J3260l942m483m285m365k161L05L999J771j95
25657D741n557n180M540k311J1168n205J473o479N972K773j2824O454J46k706
25643b995J1136p39k074o080j177Q226l917J0864J149o637l503l1j3029K230K368
25628d209Q907m097j53N881l843n543K326K90O0K354m170R77r628R568k511l97
25612d188N765K654o090r098K004J3071l770N221L941K807j0871M844n730Q731
25598I291m196J404o050n333L227N063j27O751o472l793P161L846l262q610Q449
25583G349j1144J0767l297m827k061J255K770o197L894P142j355n596M676j7963
25569a4587Q761m54J1811j908R351q636M887j145l72j7822l302L465j040L852
25555g139J972m55m773N311K518J892O495L516k884l481J383J1164r163n995m707
25540d346P816J600l497N23O985l81k260m510m432K527p717R839M364k596P009
25525A0924m662J194j2097M859k155n433J0581K770o13r242J1196k086J441p536
25511h59l680R565O27J070j3818J5742Q08j079o892J0741J180l600N61q94n931
25496C541K701Q81j0332k539l836J1290M76P39K75O03r494L756J213P655M432
25481A1361j4744j892k123J81R229J080l307P040k874L208J2551j4662q208J1791
25467H631k473k034K887q94p819J2798p09l060n025P191q992n312J562J545o98
25452b402P173K773N314o257R07m355M563K067m754m233M164k664M539J210O100
25437A4145q072J658q03N034k996m962k028J2634j1954j820k873O097k4n832J456
25422c40K444n985M099n034P317N121j3630L030q129J3512J660o305q235N135
25408e340J3316L365k008P136j3258N127j872j181N593j3142q127M032M071R453
25394G165j2298J327M377L300l296j43K644q8m594K354Q06l139O496m5l845j04
25378I17N311o047J76j981M136Q719l906k24j149L273n558r028O089N997M94j2008
25362d789p351M6J0471m854J989K435k263K57J0770r796R691o283L155K201M473
25347A0152l956l559j97j734j510J6302l370p272l45k879K963k719p54l485O334
25332C971k795l539k109Q693o574L667j0283o38J6474m173k681r75l653O994O030
25317H409p090L342j961J736k168n90o97O385q897o753N839L193J692O28l240
25302a72o78m092K178m507M513P912K76q206r311k190J1742O0j910K6k304k552
25286i215R597j61J940O338p894q03O582m024j6032M688J4550q897j903P368P175
25271I309n316l36O51n843L967n874o078N989J2007q389O071r691J2987q837k969
25256b352J2504n402K999l253k837j0000P242Q156K818q909N83j156N357n028
25242G22m643J2222j49N79k725k407K050N70l473L250P74o044M744K656o432j496
25226A98M947M437J323l918n069K033j981O606P73k204N833k174k197r756J469
25211C20j531O70l709K793J867l93K558L409J920j0826l655k314R348K753M688
25196G898j4273N453N225K505o609J369j47r50J707L582j737j927k953K091n419
25181d185j304j337P584J392k01K226j2069M715J1772K818j905q204M33K624j25
25166D234l102L115j2555J1087Q102R64j3964M556Q431j1523M681n483K444j243
25152b56O3m121J6101p570N664L006o742o377M958o573P01O090j560Q395L618
25137A5397L400k670l127M30n508p385J0581L952m750n520L014M174l768m538
25123C682O648r538L268J0982K919o32K118l725j2188o303j167J2673j234N688
25109A3191L833l038q388R716k669R071j6987j6082K538J418O058k788J1067K118
25095I058p772l56K384P845o465J0766N055q040r208M803j2041L179R24N908L779
25080I819q254k332O752N90j55l843o533L146K793P239J472j0072j265L409j1727
25065h961M419O276p090J022R287J0797q547L727K684n293l961J094n201m830
25051d577N172L305R007j0336O209M579r719q51O934k974l300R88R582o24R059
25036B2454q846M669k654M755j6491K183n471O408r627P687o882L700R117j679
25022I323m623m894n702M490J0384O92J501k729J090p7L86o257n662l247n6l482
25006h863l460J2273J678j17K922J1930p633m749P108m589o401O695o659n610
24992e475P723j0089r74J2213R06k270j6694J2228J875K286n493o778N067Q371
24978B896k277K651m63n716M089n58L890n883m574O660K695p761P273k385N489
24963F026r66m380n020Q713J164J785j036l975O245L325p741n731j908j730K793
24948b436J678r47J0624M659p524O484j0698j391p241j326J0316n957M136O672
24934G049K899l148J1598j1889k906l510N941j0620J0003k950q020L967L260k077
24920d03k796L586R1K668j291n813N278n904L18M09J07N724O791O197o086j1396
24904b520N256O495j824j361j813n296K663N618J813l144q879P895m335J314j393
24889D89o231J06J137R621R10k708l985l316k013K04N904M163M470m249p093J917
24873f74J091n570N416m400L473O972k510l615K574l668K361n27n691O02J2062
24858G896o392O86M342n39l634l893k103Q552P811m750J720m727j753K330p97
24843D749k875J953R879j492j3564R988M056j4324R517k928K4N131j2927k367
24829e180J405n094L640N943o389J0282M480r143L726m340n766O417J2193j7181
24815e007j126R377q563m615L867J0530R165q510l89P920q223m877k896O790O46
24800D089J918M569m960O886j263m88m865Q1m320R672j2365O472Q13l706n361
24785b828J0065m188L814l310k046j711J629k524j0556N976M448O425m160p725
24771f691P076J446M753l461N655J453j0199L916O415l187j010p676P173N426
24757A1089J088o762P64o20r2r180k400M449j1716L058L696O401M890J201M445
24742A0311N705m410l479R357j2152R24M963l967m817M758j648N321l844Q59Q4
24727G965j203J12j396L413L997q583n599k307p970J0934Q552j1435K662N321
24713D463P92K055O73l595P710j0807P555j817m467r343J1573k237M747m408J304
24698D198l900k094K08J203K803O94j047K406J1013q929o714j24O238l916P652
24683I691P94O561m804n801k530m060R131K938p62K922L119o387j1876M016j892
24668A060j227p677J2679J698M94k300K865M142m431m508n667Q490J952j727P165
24653A3008j204M61r051M554R254j0748j185k214n998q91M427J2347p835q21k197
24638A907k593P144k446J074n284L539n705K16J0228O103n61j0244o927j69R471
24623E753O220j896l764M650j0035L574J006M39j998L407j959j516j0387O262
24609b44P657j779m059M112K809j1110M986N208m479R327q150N234j0205Q93N423
24594E623n667N915k41O46j3747m01k313J0419l348j502K29K556J86O785L755
24579H895j769M971o190k895M397j030M94r02l206n045R973m308M973r433k832
24564c907Q646k320l084N26M826K034j070n183Q826j4450j027J9920p662k503
24550C572j0563N727N300j535p555P766n183L058J559m151J217m764N605K556
24536B609P638l205n603M23l46P670L832p009K710k973j315P034L641o013m484
24521D609l281O007J98q545K076M786k771M194k395m347p286L858J277q47j993
24506d460N945J274n817J033K034Q772j092L201k726l402k183r908m06J1012R244
24491A2521j068o044l700k470k651k342J658R463R513r005j3328R80J505L110
24477a858K936K071R386m004p710k205J801O51q024m34j48P876l683o262J1140
24462A533l011L08k385K739N861k712k871O929l257O369O364o928n524K265j495
24447D185L927J0481n018q761N15O655k273j1839R352m56N199J941n542p74j1056
24432c464k740Q607l608J587M362l731M843J112K477q869L651R89M471j08P286
24417A6865j2769m643Q932j3712K956J3289J424l120Q5m607J438k284l009L544
24403D389N181M864m580j2450J2447M742j0871l569N114p234Q107o342K191P927
24389I916j0495k841m634O77J4517j746k632N435m695j0957J2572k899r028J4639
24375G829O504j8938r69O670K409M201L874q06m366m721P000P758n726r080K970
24360D609O98N291j729q013j819Q3q45M922m112J987P047k142O891j440j2346
24345i18M472j090k302J2663j535l448m267M281l065pJ165l020J1315p35j3215
24330B94R970J263j0132M799J597q56q472k683j326r56O825P433K062l871j937
24315D010J287q40q271O160J0222p952m918J0584k457j2725M249J0142J1336r945
24301A0882r068N048L998k413m426q227J737Q785q592M645N004P698j629r268
24287D174Q098k772p94l383L379q399O237O756l424J0522o972j721k231r991M247
24272C726Q113m68M962j3458K153P392k40m817Q084m46r817J159Q492r368l042
24257B425l035Q419j5508O510J852O984l196n39M655j310J518J182j114N146j0072
24242C917l657J0288j610J652J408r778L297L50L968p286P545o724p826J486J3833
24227A0863m382P77m060J690j67k288p65l289M171j273r91J71N562p152j27P657
24211F397j78l053j608lj0874p05j346J2202n62J423k158O657M021k419J1028
24196A8822o060J198n290K609j0959J2725N986j7661o010P673o942J2775q181
24183F85R850o897M427q447M121P138j320m163N355l288J2148q512l959j3701
24169f563N452Q014Q198j2493j764J191l102O116R211m92r154n017j037M537l013
24154H4J2558J22j0814J58n860L139l5J4085r56j8090J2461P088j0493j915R906
24139A1438K444k183J780k197p158M93j848J183m613M648O261K472j1314J0002
24125A1408j634j915o816P531J225J257K476N442m665K170r97q695J380J0587
24111A8754j4250l063m48N4r03L928J1664q743L179j0147R818p056K184L592j2765
24096d202P156k836J2915o321M149r209j202P821k701l879m726q447O732M916
24082A66P704n89l268L922l203K51K236k964k96R674o493r29q95k939m73J348
24066C252P968j599P25p463M252O572l435K15m493l566L381j554J2827r784j0844
24051c546R783J254k151n455M814k216l380J2342L602p750m386k472N592K416
24037H447P20p712K928k861P566q042K215l664Q358q23L565m44l359P887q331
24022F450l060P289o822j175J459N936L508n873k457J760n269M547M473n107K372
24007H031K140o129J3271p617k135n963n667J661J2575k461K038p574J0159j524
23993A0805j225j0888j0949J0699J8333o844m106r461M758K561r478J351J3342
[...]
4330A137M044l80m784L552j0012Q377N120l285J490K493l659j2994Q290J3804
4316A3193l133q124N362L75j3421J767j423O169R08J127K623o9M285J27j4608
4301d842P30M6J081Q052K032p536J532J828o5R712n470o835l972j791n789Q073
4285c214l677j88P211p939K217L729J4048n62q173j0390K813L748J502l474K038
4270c11J452p956J945M087j627k698m266N662N41k258R464o468p57Q537p408p802
4254i863k476K981M655j933r29j474J2735l768o357n251m519Q511Q727l880j838
4239d679l808n17J5544q716r073J075q48j846O176Q789L293q303Q27l405O367
4224H76J188k642l657J340k983M619r065n985J0261P259q776P471l910l570J940
4209e634p694L360j951M637R470j5651q6P675J724N37K623l465k013J2446k543
4194C435k862p891m960l669m540Q384o05m36L564M126l054L250J448M252l74k196
4178b128k301K387q990o039J2653p43O405k059j6660m664r155J1835Q527l066
4164a3998R377o689j2800O752R092j376N629p620l524P604J2137J822q348q051
4150i993k20O789J653j1563l01J895N988O124M00r927L88Q397p439k197M422N468
4134a16o247R665p783L394j426q77p072J592m698P328o32R3J596L009l829K015
4118c988J1015j7990L460n043L022l329J0324L822n217j1327m205O649J064q232
4104a9975N075N462J122O771K664r834R09N928j021K172K832m664K002J867o247
4089d937O897j633J447j1177j366R961K175M931n86n017K725j837q681M752l448
4074e794k983J838N974j445o172m506N806o278m723J3453l081K14L281M793q211
4059g834j525O363n667M842m985n32Q262p917L976O957l1r51j331j5442N145k739
4043a3409J2062n878q467o321P718k21N809j1555J4856l249P683l894j752p96
4029g414m928P033m915P993K355J116o249p071M377O445l219j905p947P188p0
4014g211l740M815K12m098K95O840O087j942p482q008K867m783P065m63O457L537
3998D48j896j079k463m08L782p96o276P379n572L150l319r28l046O842L555k621
3982c248J208j0267J604q43Q260j1744n332N776P138l03n339n8l206L30m140K827
3966a7337L305N84Q468j1058M44R413j64q938K553P31K678o98J7195j3596l980
3951a0400j3142k145R723J3283m11N119o747m791n681N498j418n505n55K908M259
3936a0005j2525j028Q174m582m519k492N24k415O897o153O716K595j4889J2291
3922b1411R855Q39o014m842O56n26k862M475K747M054q872j696K265O462J1101
3907c769O0r828L360O714j0110Q885j1171Q657M089k515l619K487n312j651P751
3892e972n292p108J204N432q39k777L880m492L566M178O262m258n301J0159m3
3877a401l282o507L994M054L983q827p372O981k031o679L392O789J401n980P879
3862c606R709m529O69l399j0519L590r428M706n178m92J950L103j3153P058J809
3847a7710Q981m718R510M366P806j685j2714o457R198k335N594j0779o839M127
3833a3655j726J3251o710r499n01R477R84O694j0997O963m943L488J1471m037
3819B60j121l828p998n604J831j1575K887Q973o431L522M598l635n208J336O554
3804a5439O14L838N648m877n941L493k252n729l206J0072K564j047l723K152j1199
3789b5032l115P252N913L908L164l168N502O134r657M671O021p107R22k436m9
3774g077j800K074o432o674J5602j1157P817k660M178k94n115L180o842N761j746
3759a1185j436k64l626K262q86m43L822M617p432l730q64l16P478M15m57Q163
3743c882n078j4701k911J0850k34l324Q882J65N99J0771r448J1363L250q063j4105
3728a5866N297j147J0389O229J379m709K86k244m45J596J319r215J765J238r157
3713a3285K516k277P911J546N154J060l292o91j0465m72M928m938P079j0294L607
3698a1913k919L288M89J498Q219l242L108j4314K004l650Q33N113M154m267P892
3683c707o593L632L276l278L714j299o517O407J831n171p33l174l094l297M671
3668a3332m380R95R194j2248j4120O610J1075r188N287L262M447m241L322M322
3654h995n087o66K889j130Q216L748l054q879P804o076J2774q230n011M167m737
3639a2267o310J004J0121q907L367m438K028R044q349o627N471M194J368r83J844
3624i440M450O632m036n192J100q383K914R85M018l810N419N616l188r325L684
3609h556p308K3J0813j922j47q542O518L814K46k558M82q081N835M26n642J753
3593a2846J2560j410j754j0829j366J084J0869r003n95n52l063J888l991P2q89
3578a9825R944Q95p024N776Q827j828m157K179M930o334l820j481j0245l082J6061
3563i184Q25j369l924L439M93n265K425L897L176o682o59l789l231K670J758M549
3547a0871J199p414M537K82j0445M711J1005N02R7o514n985n927J0476k818J117
3532a6048j523P797k474K857K056j088r39r497L838P616o022j1911N44q20N395
3517b0219R062M54p598L167P062L845M090r365j1152R9l13J3595m059l435L057
3502a1710M552o813N465M317J571m137O107M846L510j6034l17q640j767N782R595
3487c673m807n418R686q972j182j3765R723J1185l939K333l221J796J902L833
3473d519j536K662q582Q688n903L868L566L093n943r781L912j597k210K533m72
3458a2221k012J569K95Q66R105r073p232P328p726J1256K53m441m27j295k812
3443a6567N952L134L441J880o435l471J717k194Q830j768l438L275k057l813k972
3428a4486R80P335K593m288n288j3031J2414J760n928k118K607q354J1634N017
3414i153o291K952L051j716m153j39M546p951K151O344k766N07L363m276l414
3399a6945m080N118m382L410k949l378J0419j1388jP825M114k292m181p645o21
3384b6976Q003O323n632K669J858j489L508o957j2937M256P225N700q425J3037
3370i837n103q174k57L830O911L484r2j85N198j1488l828M500k136p941N362J601
3354a8155J4028q884n090j756M729l48r935k013N133q82N229J635M145j51k680
3339a4995O77J978l564J852l638O937k274p517m284j635K400Q716Q084j922O17
3324h568q56j0647N59J248m70J153M34Q224k595m37k797j907K281j6741M948J1422
3308a4749M396m174j0363R423k049p904P480J6143O39K400K006r997J607k633
3294g775k482j711q399J2240j0658O383k08J1764o973j577N437n898m141O976
3280g022j100K786m804K377j671L947r752O996K906p233r87L729k759m859J3272
3265d174l93n122m983j673J4136M96m796j1371Q352k536N996K277n227L214j1145
3250a6949l503j235Q531l812l617Q375N392m520q952N95m38q52O706J815J448
3235a1016r03Q61m998n497N668k180o964O021J0667R160L842j6325L116M705n533
3220i376k608M825N06j239j1956j812Q316N737R44k587m589J4226j3529l014O19
3205a5537j961J822O114O568q504n684P705j250N938m586N835m38k170O065r241
3190i324j1114O67P883l509M396r170K784j72l504P033j641O678q557J3342k544
3175f752l183n964Q667N671p916m104k63n653P837J033o526l446J6718o783p45
3160a1409J813m44O244p13l898r360l344J9109p392L048J665r872M256J354j139
3145a0082p782L018j380L60n000L632m432P701k103k333O604n612k952R14N438
3130a4009N65l01l679K043J1911r935m754L742k387J083j439M724m166O381L670
3115f551j370l976Q971j1009N042l452o192M738L212k01K792r654K516O933m692
3100a2893P365r307k1K909O237j284j2100K660P704r480N554J785n437r142R728
3085a5722m641p1P031P711q361j40m062l107K596L564L279l92O151j2283m93M806
3069a4134J924r209j165Q330j21r181J4523P426m481r048j0556N102N595J0444
3055d551p480N173m138Q958J23o636M789N079j1347r000P864L491J228M147j1961
3040a4261j370K693m46l414P922R31o610m37o77N82q78N542J1553p023j4596m312
3024b4801n6K656J983N938J219k104K370N415n718j383q09O728l592m216m56K466
3008a4360N01j665l538J647m699L521K284P835m540j0835R607L97l71o350k186
2993b2752O763M492J0118j95m756J470p39p715Q676J899n080k2971O403Q771j811
2978a7427o30J6479K024k39j1338P710L62o313m807J2941M757p478n527K293J0108
2963B915j0807L40N873k467k277J671n668J065J622N497n24p197K737l848l81
2948a1449N637n048l357J65R835p403l441L983J628j212K485P220k448r52j338
2933e695J269j278j0261P581L087q321J911M584p23l527L953M13p919M405l368
2918a3889j4709j652J3115R652m240Q16k461K313N344L667o708M747M511j181
2904f75l603m165o18l381K707n911J108J903O330l102J759N027M98q137j202L583
2888g879n710l4k531q463L267k803J1198L323J231k776k968P297N78J814n812
2873a0268Q017j1364m552M563k880N514j918K995l163k690R537q62J934j905J664
2858e378p396N47K053K517n757N860L141l760k95N507m142p601K171J1334q980
2843a0179M182p847o327M620O111L803r039M514l55L558R65l043J119q29r066
2828a7813J2069m531O52l678L317M738m856R817l904L024n295r635K407Q94m745
2813a7539n57K667K077l789N536m588J012M613K859Q68O646n436L304J2429q158
2798A944j3152k981K716lj100p033R053P924k961K372R32R7j2560l21Q46J0580
2782c647q022n845Q880k428j244Q623q590O818o348N36L399M581j131l840L549
2767d709J807m037l878L875n454j604n253Q417L143L137n954n455O810R30q736
2752a6961P99J130n406J303N792j2768J2882m97J1533m306j5282K715P470k068
2738a3664p79k655l184m08J3450j0801J2534l06n328r570J3060M26L905R89j741
2723d072m072k365l609N320K773Q608j1775M328j387j023J434m129n151L103J0550
2708a467M162o171L635Q196j6766j0820J1642O851k608m562j4308L163M799O261
2694g993j1225j687J469J0257j801K658K711q822m741l914J441Q878N195n3p169
2679a4796K500n848j1298K500O827l703P545o077R856p070J4251l49m505J136
2665i031j463N007j76m83q28l525N224l504J98J412J637n533J579P26M471j267
2649e556k594n669L272m38J923j0080r09N629L558J469n957l435K609L192J0223
2634b763m560J334j120o983l751M703L616m693l4P346K882o749j1517J1978O64
2619i647l72l288j4663Q962J2368m008M554J1934q272l965L69K950q838K559r70
2604a0327J0885k466L858J709n105l499L301k539K339O159k229o27L565l557L706
2589E173l449r452J105j457M075j314o4J388Q134p466J591n683N90n960O586l110
2573i313O778J292q884O628J878p779K373k271Q70n911k936M734Q299o301J0698
2558A55N482k791K579l367n767k639n48j2957M185J0549O867P31J849m928l828
2543d428N982o16r800M927K469M880k964L640o678q861J787n555J1640P032M29
2528C884j2744p232P138p657J6336M112l930r700k120J329J971p236M555Q780
2514b514k740j924J76n431l023J0740M891K192j7204R969O211Q47j2675j436m75
2499a2396r576k711J5459P644p970k315o11m847J0978L597j2025J232N877p51
2485h415L243k750l977J487Q835M336l088m067M058L899N338l799k918n63K173
2470C792j532k597J2630q786N267n295j413l408J828L952j2002J60N340p957K132
2455g889J076l23K219P638Q52m009M400K76o179q174R070m501K116O48Q137n640
2439b83l896m323L336j3592M072K038n052Q106k589K115P613o169j435Q13M951
2424d295j628N079p179R11k209m123M214J281O920n2q406J105J0483j1472P76
2409h595J1052J968m136n791L554K31q339m783J7410q032K682J1520j0256P96
2395g19m053m304k659k820L34O090P81M514K903L357j4880J0813k492k082J184
2380d033q53r65n187J2481N60j92L261l296j2610R212j1230N584J580l076N490
2365c274j557j0502L98J3762j1318n530N035k931M613l505O77l171N595M33N737
2350e538L494q544P104m992o21j910O464O593o698k825l035K084O033L815k800
2335a376L844j0262K45J316k919J0863p310j320j408l164Q415J558n145k15q22
2320g700N283k988L056n555p06p884N370k216M596O475p11q264k346M475O757
2305b358k157k614J059p68o390k53m172k191K393O614m415l63J3103O962p132
2290b682o171j618M527P596n392l316k593j979R05p282R776N0q121K399K171P611
2274d119q494n72O478M330M783L833l991k861N061q012M305N604j084q733J066
2259b406M109J089n314K427k107K63J401J275k444L909o806j726L4l949K603k63
2243g905N654k234R080J969j1064k883j807M620K676Q25R906L117j0034l142q75
2228b097j742Q815l627O68P266L36m849k822o798M543k937K641q147J0387k223
2213e86o648J853N508j976p007M074M718J633K762p645k913J424J588l570M431
2198b354r21O006l30j484j0008P556J869m002k879j065l101m219M559R056N852
2183D535m416J51N95q603k768L461J992J0853m156j029O433k041p259p363q845
2168a8460O897l820N824K446N809q56j116p3m804J3862o278q621Q656q644P33
2153h445P023q513J4119L21k628Q55k771J4475p061j0616L173o401K222m322R792
2138A223k431p843L166j841j3M912P281m794j887r155O849k744K076R21j8512
2123b2792M835N505K986J0201M22p473k05n395K621N19J2847m963n094K26K992
2108b768l376l536K724P329p32l939m369M410R755n573q259o50k805O313k920
2093h396L561l748o791J3053J497o657j853l099N518L833k264K424m611m491J454
2078a0570M978Q33J403J0803M408j8336m7J0647r520J30J149j508n480O502j720
2063f328n39J768k490O487M469J93o368j370o926N197R128m888l307n04L259L877
2047A658q253n544Q859P329n615k595r554L108J993J2500n988m454L95j079O739
2032e01M246q140Q231j5588k950J703O153o47O333M503l375n143o742R687O3O138
2016C971n457O959N21r535k251m124L858Q288m203Q89j180r366q895P422j40K602
2000a0641K918J740n411P732N985q20L524n253L465k091n814o03M191O096m409
1985F09n097R89o453p379L471J0204K42L081n775j009J2631r143m995P007N509
1970C892M419M4q925p628J3278m796J122J881P92P863j9970P670L554q471N22
1955d753n972L688L69L214m827j20p885K928J2831O953k762q855m076O367J463
1940a437O628j1107O450m657J70L982j289M696j1586q628J0399J890k618J994
1926e113L367j959N88n099J1899j0433j066n045q099K926N240R137R947l098j34
1911C058n518p729J0562o134M855L095j407J115J042K338m475L847N409j0456
1897c98q253l705N636J342M379M609L343l198J512O163j1117N853m495L812O050
1882A1533J921M280q175o682O411k312k729j3212J5289p190p61m997Q186K17L164
1867D943q661P002J869N228k558r850K223K874k452L697m588o323Q541k713l15
1852a083k333J1499j4621j3014J3370J0250j0746L209L629j188q93j911o031O436
1838c427P051q29k45O066r960m6R392p686n93N71J678l842M768J175p863r18m231
1821h939L501J814O325nJ797N905L75o069p504P752k457K71o54P274o881J2401
1805A4906j1020m830R279m829N806n352r03K260k08M001n831j0750O308P895o562
1790A70l174L928j141n732Q936o03o59m335j124M245p79l985M378L719O106p437
1774B513k998k506k697J509o0M553Q912L06n602J865J698m127m777J157J3131
1759A2877p433j7676M050Q276q345O98K114l726O646M51n756J0283o26j1863J0283
1744B53j47k170k692M319Q279n707o6K735p708J837o597O820k615J507r07L760
1728I01p839M193j396k617R672j3079R688K204Q25n86j0304Q982L465j83l570
1713C56R221j3252l73O749k015P7K165p21q717k448O449J045L639J866j530j7425
1697a4914J5703Q42L745J945j0088M113l358L523N28k790L117J375P052J80j0399
1682E74n635m179L635J0364K899o941N567j3228N929k043n71K557O767M53j4957
1667h809p20R293K966N666K806j0728j431R528M32k74p417m520L597n152n219
1652i982J3318k369O841M754M066j1008N49l403l803n142J493K231J0174j2104
1638d385J5177M691j2803p229K658M152K468j489n341j863m327o973N601Q801
1624h62O698K590L095k784n445R27j172L451J949p726O023n20o243p966Q191Q740
1608H946k670l103q49j111n926L704L856j0141L714k703R255l881J734L662j467
1593C020j1822Q777k963M02N251n715M873k718N678J086J1409o788r363k67L457
1578D317M41j944K080r678k614M308q98m877K917J308k893M202N959L10p900J1854
1562F892l054k685P230r873l189M703q941K290M978m01K778R17L093K328j2725
1547e659m238Q978Q364M348J049N181q590Q746m182j918q453K469P642o978J009
1532G768q842Q806J266Q771r123L346j1837K628o02q01P34M498r062M994o031
1517c487J366J2627l842k234o452R142K76n279o16N81n534J480r28k377J3913
1502H636l120n500r16N9J273k385M382J4972k619j123r370o096q346O003J888
1487b262N745m821n391M558J472j257o25n487m43Q77J0764K095j7371J4327q014
1472e833R181j657K323m174M72j792n55L629r732N905K514M730K466l370J783
1457E890P105O814j4290n641j1279J804O497J1153r745O678J161L725n265J573
1443F180j580j187L670K464l101K287n166k819P79L344P28q288J1596m996q75
1428C036Q767l371l750J5419j3966J504Q760j1248j136p098N420M284M604l967
1414G258M284k111j518j778l301n043Q059K707l620M664M246K06j3416j2815J2035
1399a43J0300L698o26K000m027k768K994K787j0098Q317j2227O689Q374p638k171
1384E461K527M988j2024J3702q89m39l083l234o503R227m75M6K822o9K654m077
1368A0634q442l086j363J5079o233l124j340n879M198L8m408k471k703R115M424
1353D439K751L067k564K360j751q97M67n169j589o97n073R133o180l023j030J8285
1337A2529L070j0929l109N968l670k928l51L125P945O777l908j3869M642r1P51
1322E952L49K0P734r429N686L672j444j2531O763J804K618n498K248J259K735
1307A1938r129Q470j3532M487M551Q292k687n901n341L402N569J60N131n733m026
1292E651J1051K008J059p385K126m19j415n478N987J072j5076L447J1234Q100
1278B1962r793P18p409k15K181N750j1521J0245O737j1880M468K546n721R108
1264A7176o152j586M624p21r821L210m550O036J0443J550J755j3266J0132q403
1250A0427J0092J124p333q914j1801k895J8043K588l038o575J8469l135k767o51
1236A3634l497J701k678J1521o707n868k304M373kl88j154p221L263O152J133
1221A1958p217R287p697o216R92J1046k446n031N800J317L170j2061N269J0393
1207A8564l101n73j1493P169m624k472N508p135m34Q431m220j665J200O360J877
1192A3392l800r263m95P031J676J050j0378J5837k207R23Q28M451M817m154r171
1177A0537q725J3393m009R91J172N73o740n345O022J0031j939r268K763K918o36
1162A1738J0578N95j1526n085j486L497J743L769p751P115k796r72k531J4171
1148B1059j1240L32J406L836n884m873l08Q887N174r601K983k239K012J753r05
1133A2392K575j752O157m733M243k839j3983L085R933L452m605n018O417Q063
1119B3387p053o938K479M18n767k40m552M693N924l707L524n431j936O552n051
1104F302J177j828J1145j1719o850O651R719M325k914l152k383N88o160O270l272
1089G899l48L331K532q436M276M122m072m138M606M696P64o53n666p076n049j24
1073c336N193K700Q63o30L602M266l870K539l700N54J1065O26r978M201k66m354
1057I475L98M748N896J077K20j7782P22P566k010J496K921L102n1k494K131j1909
1041E506J449Q810j180k281o3m016J123J243M707j240k192j411M49o089P381Q317
1025B0513k027p382J254n287n303K778O379r955J0017P796m475o256k646l05J484
1010F585L672P738r64J827r079l691k25N607j061j437J911l526K97m779R047M081
994A6003m050M646m169o408K082L708k374N697k16M69p033Q37K543L926o373m190
978E098p41K258R368P134k383K52r677M542o684N555k766m615l940J34N637Q177
962A7349P847n604q65n061N157k579O88P03J886k60o79j66N00k583p506k318L08
945F817Q887L11j242K326R61M359r575m085O099O393r557K818k646N525J486m053
929A4824p674o41O320J2439k898p241J886N307L064p788j60o685K0335J4070j7401
914B7757j430k531J967J187p538j920o402J2213l530j8169j941O553J6386r398
900A3204l912l279J0163J782q52r78M424o552M952r510j649n928M360N582P56
885A2563J416p805J573l88N526k486M309N371n672P718J897l625l65m999N739
870B0772n898K046k656m476K016K741N532J71q840J0997L278o620K585k005q908
855A0735J36J2254r524J2k683l71L745J563Q90j29M591N125K413l95j1322Q104
839B5144J294K009j4016m157K70m28J448K780L130M409M010L049L633j3516q126
824A0933r02J101r042J2298K375j6966N159j584N750J151N400n230J1377m864
810A6956k000k108o057R940k104m226q10l087O192l720m399q60O6J0311n697J589
794I986P781J548R306j5797L02M410M767j0239M937K729j522L239N760j6234O216
779A7189P112r61l692l977k284m21R763m732k17l694j862q519J6482M043q949
764A5281j0718J7815n25j69j1468O277J555J001n552K574l024j148M759j1268
750E390j347N61J791J2284N527r237J876m439j2627K800r673O607J0930Q80J47
735A1470l743k044N327o654Q155n447j2671J0785O142p932O989p423O586Q274
721A7814J1234j5041o460m169L801L161n514J1756o633K062j535J120L266M277
707A9139j484q764n755J883m094K786N285N139N200j020l35q28Q083k540j0378
692A2317p361J6971n798n525M559n871k051M844p90O757o461k613K554N042l35
677A6239j0294O066n556K944l904K922J306O957j091m751m935n398N980J032L506
662A1023K302M881r19j0107o232O09P213o36k350M96R317l354o557N693n791L385
646H973m467O715O319L312l651R980k407n032K723p275J102O36l102n941n699
631B186j803J5029M309k768k872q53r624R968n580R11P597j2345r318J2673Q442
616A5952l148K834o93j038q567K505l983J1012l290O632R83J153L495o47O579
601B9779m830q842L445O743j4215J2980L006n384m441m05n26J925J1359n602M681
586B9673j1898q068M359o75p005P949N682j790k396L606q044O026J2453j2975
572A6897M084l50Q514j2097j618n1n136P050L588L99r95j437j811M323o268m196
556A0896L744M647o04M22j467J2992p08r841m471k480p97O005L743r147M510J598
540A9042k161L670k782L53k291M046N490J848l256j597j413p966l210P300P080
525B4153m905k023p061k117P773L425p921q69P63K809k838J2167n192L66R97j0902
509H625M555P421k321N535O74J610r850n043L341j828r2m84N186m716m421P718
493A5910l50m16k19p143M305K409o323l841j905l515J1744J3965m691l518M143
478B0555o987P243p723k093R452k697j1876N683L997K834m441k270O955K291m128
463A6795m064J287L314M050q146J9057j813n581o743Q494r298l691j792Q582o880
448A3571L125n294M078j026R366j351n416J2463L237n378o888l048L584p582o82
433A2759J322q318MN813M534Q223q645k564P682q659l486J1080L549M131j2888
418A4537k574O032J999j527R275L82j2119K387m490l44o08J2719n857p78K077
403B1111l896N591l333r317L946J3802o30p356J939l270n191k093L261L815J99
388A8578K66k585j611R03m548K581k737J5217p30Q12m495m919K627l797p604O22
372H580L245P258O239m495O070m251N542p643l699p03j751k572j566l835O169
357A2588j945L669l3n929p50J965P874N545L9l672k365M037j420m487P0O91N52
340A6429l572p064Q250l710P572n63o178r21j355N056R434l307o66m970m69N040
324A9006m528o71o36Q648o50m643L177L423n324j0545J3055P61J807j209j213
309B0458p494q99N441L258O367K546r593M083L75n390k046p2M838m819L545K670
293B3268J034O997n542J004k342k184L84o69L828p262L196o459J964J094r752
278H559Q07Q941k041k316M278m760L103p286J5434j857q442o039j465N498j316
263A1098L061j961M98J2943J220n109l187l900m04j704k868O309K251K483P532
248B8262k598n379J62N428l554j624q018J106K729M334N758k623j1837J5392q986
233A8552K691p043K376n420J0755K030m189M173o378j042m765L668l91l232M177
218A5962K426n447M413J413m99m272K823j835P941J772o892Q561K782o656q136
203A4356l141J0809p82k767p358O57j599M59N068N871p625K279l871m83K222P352
187B1447R019r487m724P015n528l171M049l326L070l884O137K845L054j748j0560
172A4208O767n10P081O230o372n589Q491j1366K062L522P616r789O498o379M73
157B2943L670r719j701Q521o766l060Q090j997M853J122j632k67l719R095q99
142B8534j526o69n272J481K468L057k42k237l449m194l819J518K195J587K770
127B2202J015j124o74L214m552o298J0246R77Q96l346L977n635l746P776l30k531
111B2067l349J881j218o239Q107P195O188p180L854k404j304j363J909p499K991
96B3636l811M323O08m152j126k399R114K676q756l098R733L605o547m739P376
81B6443O05m321n524P209K230o149N691j377o05j050K39k097P107K11n230o093
65A7289k874P202N300n596L392j0761R722l648K906j767J112j848k065l859l54
50A4151l37K467N982K997R97K015o825M490m341j180L132P39l337Q26q59k579
34A8338J668L359J363m069l099K012N582o94j865n855O496l999N198M8q973O74
18A6184P132m089l305Q552j198K979l709r570M454N648Q69l176K320J369o56m156
2A9648l846K411
0A8213
##END=
